# smile     : C[Si]1(O)O[Si](C)(O)O[Si](C)(O)O[Si](C)(O)O1
#############################################################
#             ______       _    _          _                #
#            (_____ \     \ \  / /        | |               #
#             _____) )   _ \ \/ / |_  ____| |               #
#            |  ____/ | | | )  (|  _)/ _  | |               #
#            | |    | |_| |/ /\ \ |_( (_| | |___            #
#            |_|     \__  /_/  \_\___)__|_|_____)           #
#                   (____/                                  #
#---------------------(version    0.6.2)--------------------#
#       A Python package for random crystal generation      #
#       url: https://github.com/qzhu2017/pyxtal             #
#       @Zhu's group at University of Nevada Las Vegas      #
#############################################################
data_0-SG-14
#Energy: -293.0749875 eV/cell

_symmetry_space_group_name_H-M 'P21/c'
_symmetry_Int_Tables_number                   14
_symmetry_cell_setting                monoclinic
_cell_length_a            7.840160
_cell_length_b            8.682689
_cell_length_c           16.874966
_cell_angle_alpha        90.000000
_cell_angle_beta        102.910870
_cell_angle_gamma        90.000000
_cell_volume           1119.699361

loop_
 _symmetry_equiv_pos_site_id
 _symmetry_equiv_pos_as_xyz
1 'x, y, z'
2 '-x, y+1/2, -z+1/2'
3 '-x, -y, -z'
4 'x, -y+1/2, z+1/2'

loop_
 _atom_site_label
 _atom_site_type_symbol
 _atom_site_symmetry_multiplicity
 _atom_site_fract_x
 _atom_site_fract_y
 _atom_site_fract_z
 _atom_site_occupancy
C      C        4     0.409000    0.888000    0.337000 1
Si     Si       4     0.313000    0.744000    0.277000 1
O      O        4     0.383000    0.585000    0.314000 1
O      O        4     0.114000    0.743000    0.263000 1
Si     Si       4    -0.051000    0.832000    0.270000 1
C      C        4    -0.188000    0.725000    0.309000 1
O      O        4    -0.002000    0.982000    0.320000 1
O      O        4    -0.139000    0.879000    0.184000 1
Si     Si       4    -0.106000    0.883000    0.098000 1
C      C        4    -0.227000    0.751000    0.039000 1
O      O        4    -0.156000    1.048000    0.067000 1
O      O        4     0.091000    0.868000    0.112000 1
Si     Si       4     0.262000    0.793000    0.106000 1
C      C        4     0.244000    0.637000    0.047000 1
O      O        4     0.371000    0.921000    0.075000 1
O      O        4     0.352000    0.756000    0.193000 1
H      H        4     0.313000    0.957000    0.358000 1
H      H        4     0.499000    0.839000    0.390000 1
H      H        4     0.480000    0.961000    0.303000 1
H      H        4     0.277000    0.533000    0.321000 1
H      H        4    -0.312000    0.713000    0.264000 1
H      H        4    -0.211000    0.779000    0.364000 1
H      H        4    -0.132000    0.612000    0.323000 1
H      H        4    -0.048000    1.064000    0.282000 1
H      H        4    -0.305000    0.687000    0.073000 1
H      H        4    -0.314000    0.807000   -0.012000 1
H      H        4    -0.145000    0.670000    0.015000 1
H      H        4    -0.246000    1.035000    0.016000 1
H      H        4     0.109000    0.612000    0.018000 1
H      H        4     0.300000    0.538000    0.083000 1
H      H        4     0.316000    0.657000   -0.001000 1
H      H        4     0.460000    0.948000    0.124000 1
#END

#############################################################
#             ______       _    _          _                #
#            (_____ \     \ \  / /        | |               #
#             _____) )   _ \ \/ / |_  ____| |               #
#            |  ____/ | | | )  (|  _)/ _  | |               #
#            | |    | |_| |/ /\ \ |_( (_| | |___            #
#            |_|     \__  /_/  \_\___)__|_|_____)           #
#                   (____/                                  #
#---------------------(version    0.6.2)--------------------#
#       A Python package for random crystal generation      #
#       url: https://github.com/qzhu2017/pyxtal             #
#       @Zhu's group at University of Nevada Las Vegas      #
#############################################################
data_1-SG-14
#Energy: -292.6072775 eV/cell

_symmetry_space_group_name_H-M 'P 1 21/n 1'
_symmetry_Int_Tables_number                   14
_symmetry_cell_setting                monoclinic
_cell_length_a            7.871016
_cell_length_b            8.699582
_cell_length_c           16.158784
_cell_angle_alpha        90.000000
_cell_angle_beta         89.487558
_cell_angle_gamma        90.000000
_cell_volume           1106.421195

loop_
 _symmetry_equiv_pos_site_id
 _symmetry_equiv_pos_as_xyz
1 'x, y, z'
2 '-x-1/2, y+1/2, -z-1/2'
3 '-x, -y, -z'
4 'x-1/2, -y+1/2, z-1/2'

loop_
 _atom_site_label
 _atom_site_type_symbol
 _atom_site_symmetry_multiplicity
 _atom_site_fract_x
 _atom_site_fract_y
 _atom_site_fract_z
 _atom_site_occupancy
C      C        4    -0.123000    0.350000    0.159000 1
Si     Si       4    -0.052000    0.219000    0.226000 1
O      O        4    -0.111000    0.055000    0.200000 1
O      O        4    -0.117000    0.252000    0.312000 1
Si     Si       4    -0.075000    0.293000    0.402000 1
C      C        4    -0.139000    0.154000    0.465000 1
O      O        4    -0.176000    0.442000    0.423000 1
O      O        4     0.113000    0.327000    0.420000 1
Si     Si       4     0.302000    0.349000    0.400000 1
C      C        4     0.421000    0.218000    0.447000 1
O      O        4     0.346000    0.511000    0.432000 1
O      O        4     0.350000    0.353000    0.309000 1
Si     Si       4     0.299000    0.307000    0.223000 1
C      C        4     0.451000    0.200000    0.180000 1
O      O        4     0.268000    0.458000    0.175000 1
O      O        4     0.137000    0.218000    0.237000 1
H      H        4    -0.198000    0.291000    0.112000 1
H      H        4    -0.202000    0.433000    0.191000 1
H      H        4    -0.018000    0.409000    0.128000 1
H      H        4    -0.005000    0.002000    0.189000 1
H      H        4    -0.188000    0.057000    0.429000 1
H      H        4    -0.237000    0.196000    0.507000 1
H      H        4    -0.031000    0.117000    0.501000 1
H      H        4    -0.236000    0.466000    0.372000 1
H      H        4     0.338000    0.133000    0.478000 1
H      H        4     0.501000    0.160000    0.402000 1
H      H        4     0.499000    0.274000    0.493000 1
H      H        4     0.249000    0.532000    0.469000 1
H      H        4     0.403000    0.087000    0.166000 1
H      H        4     0.558000    0.189000    0.222000 1
H      H        4     0.497000    0.254000    0.123000 1
H      H        4     0.302000    0.537000    0.214000 1
#END

#############################################################
#             ______       _    _          _                #
#            (_____ \     \ \  / /        | |               #
#             _____) )   _ \ \/ / |_  ____| |               #
#            |  ____/ | | | )  (|  _)/ _  | |               #
#            | |    | |_| |/ /\ \ |_( (_| | |___            #
#            |_|     \__  /_/  \_\___)__|_|_____)           #
#                   (____/                                  #
#---------------------(version    0.6.2)--------------------#
#       A Python package for random crystal generation      #
#       url: https://github.com/qzhu2017/pyxtal             #
#       @Zhu's group at University of Nevada Las Vegas      #
#############################################################
data_2-SG-14
#Energy: -292.5138175 eV/cell

_symmetry_space_group_name_H-M 'P 1 21/n 1'
_symmetry_Int_Tables_number                   14
_symmetry_cell_setting                monoclinic
_cell_length_a            7.942005
_cell_length_b           15.376610
_cell_length_c            9.587064
_cell_angle_alpha        90.000000
_cell_angle_beta         76.655947
_cell_angle_gamma        90.000000
_cell_volume           1139.173790

loop_
 _symmetry_equiv_pos_site_id
 _symmetry_equiv_pos_as_xyz
1 'x, y, z'
2 '-x-1/2, y+1/2, -z-1/2'
3 '-x, -y, -z'
4 'x-1/2, -y+1/2, z-1/2'

loop_
 _atom_site_label
 _atom_site_type_symbol
 _atom_site_symmetry_multiplicity
 _atom_site_fract_x
 _atom_site_fract_y
 _atom_site_fract_z
 _atom_site_occupancy
C      C        4     0.672000    0.673000    0.680000 1
Si     Si       4     0.522000    0.719000    0.810000 1
O      O        4     0.544000    0.687000    0.959000 1
O      O        4     0.339000    0.698000    0.796000 1
Si     Si       4     0.183000    0.742000    0.758000 1
C      C        4     0.015000    0.748000    0.900000 1
O      O        4     0.129000    0.689000    0.639000 1
O      O        4     0.253000    0.828000    0.690000 1
Si     Si       4     0.270000    0.927000    0.684000 1
C      C        4     0.137000    0.983000    0.813000 1
O      O        4     0.244000    0.954000    0.534000 1
O      O        4     0.455000    0.945000    0.691000 1
Si     Si       4     0.603000    0.902000    0.739000 1
C      C        4     0.670000    0.964000    0.858000 1
O      O        4     0.751000    0.886000    0.604000 1
O      O        4     0.530000    0.817000    0.809000 1
H      H        4     0.611000    0.635000    0.610000 1
H      H        4     0.753000    0.632000    0.729000 1
H      H        4     0.754000    0.722000    0.616000 1
H      H        4     0.430000    0.661000    1.001000 1
H      H        4    -0.094000    0.713000    0.877000 1
H      H        4    -0.025000    0.815000    0.926000 1
H      H        4     0.051000    0.719000    0.992000 1
H      H        4     0.133000    0.733000    0.564000 1
H      H        4     0.051000    0.941000    0.888000 1
H      H        4     0.063000    1.027000    0.763000 1
H      H        4     0.214000    1.020000    0.872000 1
H      H        4     0.208000    0.899000    0.500000 1
H      H        4     0.592000    1.023000    0.876000 1
H      H        4     0.655000    0.928000    0.958000 1
H      H        4     0.804000    0.980000    0.816000 1
H      H        4     0.711000    0.924000    0.536000 1
#END

#############################################################
#             ______       _    _          _                #
#            (_____ \     \ \  / /        | |               #
#             _____) )   _ \ \/ / |_  ____| |               #
#            |  ____/ | | | )  (|  _)/ _  | |               #
#            | |    | |_| |/ /\ \ |_( (_| | |___            #
#            |_|     \__  /_/  \_\___)__|_|_____)           #
#                   (____/                                  #
#---------------------(version    0.6.2)--------------------#
#       A Python package for random crystal generation      #
#       url: https://github.com/qzhu2017/pyxtal             #
#       @Zhu's group at University of Nevada Las Vegas      #
#############################################################
data_3-SG-14
#Energy: -292.50152 eV/cell

_symmetry_space_group_name_H-M 'P 1 21/n 1'
_symmetry_Int_Tables_number                   14
_symmetry_cell_setting                monoclinic
_cell_length_a            7.728689
_cell_length_b           15.263883
_cell_length_c            9.908483
_cell_angle_alpha        90.000000
_cell_angle_beta         79.234831
_cell_angle_gamma        90.000000
_cell_volume           1148.330279

loop_
 _symmetry_equiv_pos_site_id
 _symmetry_equiv_pos_as_xyz
1 'x, y, z'
2 '-x-1/2, y+1/2, -z-1/2'
3 '-x, -y, -z'
4 'x-1/2, -y+1/2, z-1/2'

loop_
 _atom_site_label
 _atom_site_type_symbol
 _atom_site_symmetry_multiplicity
 _atom_site_fract_x
 _atom_site_fract_y
 _atom_site_fract_z
 _atom_site_occupancy
C      C        4     0.124000    0.735000    0.381000 1
Si     Si       4     0.289000    0.747000    0.246000 1
O      O        4     0.239000    0.707000    0.115000 1
O      O        4     0.454000    0.703000    0.275000 1
Si     Si       4     0.641000    0.717000    0.296000 1
C      C        4     0.784000    0.671000    0.168000 1
O      O        4     0.648000    0.670000    0.434000 1
O      O        4     0.697000    0.812000    0.318000 1
Si     Si       4     0.678000    0.912000    0.327000 1
C      C        4     0.844000    0.958000    0.217000 1
O      O        4     0.693000    0.938000    0.475000 1
O      O        4     0.506000    0.950000    0.299000 1
Si     Si       4     0.334000    0.932000    0.254000 1
C      C        4     0.309000    0.997000    0.123000 1
O      O        4     0.183000    0.946000    0.377000 1
O      O        4     0.348000    0.838000    0.213000 1
H      H        4     0.016000    0.700000    0.349000 1
H      H        4     0.075000    0.798000    0.423000 1
H      H        4     0.169000    0.697000    0.461000 1
H      H        4     0.246000    0.758000    0.054000 1
H      H        4     0.713000    0.645000    0.092000 1
H      H        4     0.855000    0.618000    0.208000 1
H      H        4     0.879000    0.720000    0.120000 1
H      H        4     0.528000    0.648000    0.455000 1
H      H        4     0.793000    1.000000    0.146000 1
H      H        4     0.926000    0.907000    0.160000 1
H      H        4     0.923000    0.997000    0.275000 1
H      H        4     0.708000    0.881000    0.518000 1
H      H        4     0.302000    0.956000    0.035000 1
H      H        4     0.189000    1.035000    0.150000 1
H      H        4     0.420000    1.041000    0.100000 1
H      H        4     0.241000    0.979000    0.442000 1
#END

#############################################################
#             ______       _    _          _                #
#            (_____ \     \ \  / /        | |               #
#             _____) )   _ \ \/ / |_  ____| |               #
#            |  ____/ | | | )  (|  _)/ _  | |               #
#            | |    | |_| |/ /\ \ |_( (_| | |___            #
#            |_|     \__  /_/  \_\___)__|_|_____)           #
#                   (____/                                  #
#---------------------(version    0.6.2)--------------------#
#       A Python package for random crystal generation      #
#       url: https://github.com/qzhu2017/pyxtal             #
#       @Zhu's group at University of Nevada Las Vegas      #
#############################################################
data_4-SG-14
#Energy: -292.40076 eV/cell

_symmetry_space_group_name_H-M 'P21/c'
_symmetry_Int_Tables_number                   14
_symmetry_cell_setting                monoclinic
_cell_length_a            5.826694
_cell_length_b           15.220237
_cell_length_c           13.283595
_cell_angle_alpha        90.000000
_cell_angle_beta         95.931634
_cell_angle_gamma        90.000000
_cell_volume           1171.730552

loop_
 _symmetry_equiv_pos_site_id
 _symmetry_equiv_pos_as_xyz
1 'x, y, z'
2 '-x, y+1/2, -z+1/2'
3 '-x, -y, -z'
4 'x, -y+1/2, z+1/2'

loop_
 _atom_site_label
 _atom_site_type_symbol
 _atom_site_symmetry_multiplicity
 _atom_site_fract_x
 _atom_site_fract_y
 _atom_site_fract_z
 _atom_site_occupancy
C      C        4    -0.397000    0.777000    0.242000 1
Si     Si       4    -0.114000    0.755000    0.246000 1
O      O        4    -0.056000    0.709000    0.148000 1
O      O        4    -0.033000    0.698000    0.335000 1
Si     Si       4     0.120000    0.691000    0.434000 1
C      C        4     0.333000    0.619000    0.423000 1
O      O        4    -0.039000    0.657000    0.511000 1
O      O        4     0.222000    0.778000    0.478000 1
Si     Si       4     0.276000    0.878000    0.478000 1
C      C        4     0.563000    0.888000    0.496000 1
O      O        4     0.168000    0.918000    0.570000 1
O      O        4     0.185000    0.930000    0.385000 1
Si     Si       4     0.069000    0.928000    0.280000 1
C      C        4     0.228000    0.975000    0.197000 1
O      O        4    -0.169000    0.972000    0.278000 1
O      O        4     0.042000    0.832000    0.260000 1
H      H        4    -0.485000    0.753000    0.171000 1
H      H        4    -0.468000    0.743000    0.304000 1
H      H        4    -0.426000    0.847000    0.249000 1
H      H        4     0.030000    0.756000    0.119000 1
H      H        4     0.313000    0.563000    0.472000 1
H      H        4     0.328000    0.597000    0.345000 1
H      H        4     0.499000    0.650000    0.446000 1
H      H        4    -0.182000    0.650000    0.468000 1
H      H        4     0.643000    0.823000    0.496000 1
H      H        4     0.622000    0.927000    0.435000 1
H      H        4     0.613000    0.920000    0.568000 1
H      H        4     0.079000    0.869000    0.595000 1
H      H        4     0.130000    1.027000    0.157000 1
H      H        4     0.276000    0.926000    0.143000 1
H      H        4     0.384000    1.003000    0.238000 1
H      H        4    -0.161000    1.002000    0.344000 1
#END

#############################################################
#             ______       _    _          _                #
#            (_____ \     \ \  / /        | |               #
#             _____) )   _ \ \/ / |_  ____| |               #
#            |  ____/ | | | )  (|  _)/ _  | |               #
#            | |    | |_| |/ /\ \ |_( (_| | |___            #
#            |_|     \__  /_/  \_\___)__|_|_____)           #
#                   (____/                                  #
#---------------------(version    0.6.2)--------------------#
#       A Python package for random crystal generation      #
#       url: https://github.com/qzhu2017/pyxtal             #
#       @Zhu's group at University of Nevada Las Vegas      #
#############################################################
data_5-SG-14
#Energy: -292.29462 eV/cell

_symmetry_space_group_name_H-M 'P21/c'
_symmetry_Int_Tables_number                   14
_symmetry_cell_setting                monoclinic
_cell_length_a            8.421765
_cell_length_b           14.541631
_cell_length_c           10.316482
_cell_angle_alpha        90.000000
_cell_angle_beta        105.320871
_cell_angle_gamma        90.000000
_cell_volume           1218.519938

loop_
 _symmetry_equiv_pos_site_id
 _symmetry_equiv_pos_as_xyz
1 'x, y, z'
2 '-x, y+1/2, -z+1/2'
3 '-x, -y, -z'
4 'x, -y+1/2, z+1/2'

loop_
 _atom_site_label
 _atom_site_type_symbol
 _atom_site_symmetry_multiplicity
 _atom_site_fract_x
 _atom_site_fract_y
 _atom_site_fract_z
 _atom_site_occupancy
C      C        4    -0.250000    0.246000    0.249000 1
Si     Si       4    -0.086000    0.189000    0.232000 1
O      O        4    -0.070000    0.194000    0.087000 1
O      O        4    -0.094000    0.091000    0.274000 1
Si     Si       4    -0.097000   -0.007000    0.237000 1
C      C        4    -0.155000   -0.028000    0.073000 1
O      O        4    -0.213000   -0.056000    0.310000 1
O      O        4     0.077000   -0.038000    0.303000 1
Si     Si       4     0.247000   -0.010000    0.384000 1
C      C        4     0.387000   -0.034000    0.300000 1
O      O        4     0.275000   -0.069000    0.513000 1
O      O        4     0.269000    0.091000    0.430000 1
Si     Si       4     0.225000    0.194000    0.431000 1
C      C        4     0.386000    0.254000    0.413000 1
O      O        4     0.196000    0.216000    0.571000 1
O      O        4     0.071000    0.222000    0.326000 1
H      H        4    -0.333000    0.199000    0.282000 1
H      H        4    -0.314000    0.276000    0.153000 1
H      H        4    -0.211000    0.300000    0.324000 1
H      H        4     0.037000    0.224000    0.096000 1
H      H        4    -0.265000   -0.071000    0.049000 1
H      H        4    -0.183000    0.036000    0.017000 1
H      H        4    -0.057000   -0.064000    0.043000 1
H      H        4    -0.253000   -0.004000    0.354000 1
H      H        4     0.327000   -0.060000    0.201000 1
H      H        4     0.472000   -0.087000    0.355000 1
H      H        4     0.456000    0.027000    0.291000 1
H      H        4     0.174000   -0.104000    0.494000 1
H      H        4     0.350000    0.299000    0.326000 1
H      H        4     0.482000    0.207000    0.401000 1
H      H        4     0.436000    0.296000    0.503000 1
H      H        4     0.212000    0.155000    0.615000 1
#END

#############################################################
#             ______       _    _          _                #
#            (_____ \     \ \  / /        | |               #
#             _____) )   _ \ \/ / |_  ____| |               #
#            |  ____/ | | | )  (|  _)/ _  | |               #
#            | |    | |_| |/ /\ \ |_( (_| | |___            #
#            |_|     \__  /_/  \_\___)__|_|_____)           #
#                   (____/                                  #
#---------------------(version    0.6.2)--------------------#
#       A Python package for random crystal generation      #
#       url: https://github.com/qzhu2017/pyxtal             #
#       @Zhu's group at University of Nevada Las Vegas      #
#############################################################
data_6-SG-14
#Energy: -292.280075 eV/cell

_symmetry_space_group_name_H-M 'P21/c'
_symmetry_Int_Tables_number                   14
_symmetry_cell_setting                monoclinic
_cell_length_a            5.979753
_cell_length_b           15.707805
_cell_length_c           13.257682
_cell_angle_alpha        90.000000
_cell_angle_beta         94.854055
_cell_angle_gamma        90.000000
_cell_volume           1240.811856

loop_
 _symmetry_equiv_pos_site_id
 _symmetry_equiv_pos_as_xyz
1 'x, y, z'
2 '-x, y+1/2, -z+1/2'
3 '-x, -y, -z'
4 'x, -y+1/2, z+1/2'

loop_
 _atom_site_label
 _atom_site_type_symbol
 _atom_site_symmetry_multiplicity
 _atom_site_fract_x
 _atom_site_fract_y
 _atom_site_fract_z
 _atom_site_occupancy
C      C        4     1.337000    0.728000    0.243000 1
Si     Si       4     1.070000    0.706000    0.262000 1
O      O        4     1.023000    0.720000    0.374000 1
O      O        4     1.019000    0.615000    0.236000 1
Si     Si       4     0.883000    0.554000    0.167000 1
C      C        4     0.712000    0.497000    0.235000 1
O      O        4     1.062000    0.495000    0.127000 1
O      O        4     0.748000    0.592000    0.074000 1
Si     Si       4     0.652000    0.664000    0.005000 1
C      C        4     0.373000    0.656000   -0.005000 1
O      O        4     0.741000    0.649000   -0.101000 1
O      O        4     0.725000    0.754000    0.032000 1
Si     Si       4     0.846000    0.812000    0.109000 1
C      C        4     0.690000    0.895000    0.138000 1
O      O        4     1.063000    0.841000    0.065000 1
O      O        4     0.898000    0.754000    0.197000 1
H      H        4     1.419000    0.672000    0.217000 1
H      H        4     1.346000    0.779000    0.187000 1
H      H        4     1.426000    0.749000    0.314000 1
H      H        4     0.902000    0.763000    0.368000 1
H      H        4     0.540000    0.503000    0.202000 1
H      H        4     0.723000    0.521000    0.313000 1
H      H        4     0.762000    0.430000    0.236000 1
H      H        4     1.195000    0.520000    0.162000 1
H      H        4     0.311000    0.642000   -0.083000 1
H      H        4     0.321000    0.606000    0.044000 1
H      H        4     0.301000    0.716000    0.017000 1
H      H        4     0.831000    0.597000   -0.091000 1
H      H        4     0.528000    0.893000    0.093000 1
H      H        4     0.662000    0.893000    0.218000 1
H      H        4     0.776000    0.954000    0.121000 1
H      H        4     1.045000    0.818000   -0.005000 1
#END

#############################################################
#             ______       _    _          _                #
#            (_____ \     \ \  / /        | |               #
#             _____) )   _ \ \/ / |_  ____| |               #
#            |  ____/ | | | )  (|  _)/ _  | |               #
#            | |    | |_| |/ /\ \ |_( (_| | |___            #
#            |_|     \__  /_/  \_\___)__|_|_____)           #
#                   (____/                                  #
#---------------------(version    0.6.2)--------------------#
#       A Python package for random crystal generation      #
#       url: https://github.com/qzhu2017/pyxtal             #
#       @Zhu's group at University of Nevada Las Vegas      #
#############################################################
data_7-SG-14
#Energy: -292.1354525 eV/cell

_symmetry_space_group_name_H-M 'P21/c'
_symmetry_Int_Tables_number                   14
_symmetry_cell_setting                monoclinic
_cell_length_a            8.413640
_cell_length_b           13.704856
_cell_length_c           10.728692
_cell_angle_alpha        90.000000
_cell_angle_beta        108.441830
_cell_angle_gamma        90.000000
_cell_volume           1173.570124

loop_
 _symmetry_equiv_pos_site_id
 _symmetry_equiv_pos_as_xyz
1 'x, y, z'
2 '-x, y+1/2, -z+1/2'
3 '-x, -y, -z'
4 'x, -y+1/2, z+1/2'

loop_
 _atom_site_label
 _atom_site_type_symbol
 _atom_site_symmetry_multiplicity
 _atom_site_fract_x
 _atom_site_fract_y
 _atom_site_fract_z
 _atom_site_occupancy
C      C        4     0.778000    0.271000    0.212000 1
Si     Si       4     0.613000    0.217000    0.235000 1
O      O        4     0.606000    0.237000    0.376000 1
O      O        4     0.449000    0.250000    0.136000 1
Si     Si       4     0.292000    0.208000    0.037000 1
C      C        4     0.115000    0.253000    0.053000 1
O      O        4     0.298000    0.228000   -0.104000 1
O      O        4     0.311000    0.098000    0.056000 1
Si     Si       4     0.276000    0.003000    0.113000 1
C      C        4     0.141000    0.011000    0.199000 1
O      O        4     0.215000   -0.071000   -0.002000 1
O      O        4     0.444000   -0.033000    0.202000 1
Si     Si       4     0.622000    0.005000    0.265000 1
C      C        4     0.683000   -0.003000    0.428000 1
O      O        4     0.741000   -0.053000    0.208000 1
O      O        4     0.621000    0.108000    0.214000 1
H      H        4     0.736000    0.322000    0.131000 1
H      H        4     0.859000    0.216000    0.189000 1
H      H        4     0.849000    0.309000    0.301000 1
H      H        4     0.490000    0.259000    0.361000 1
H      H        4     0.035000    0.196000    0.069000 1
H      H        4     0.047000    0.292000   -0.036000 1
H      H        4     0.145000    0.304000    0.135000 1
H      H        4     0.289000    0.161000   -0.139000 1
H      H        4     0.034000   -0.036000    0.155000 1
H      H        4     0.099000    0.085000    0.203000 1
H      H        4     0.204000   -0.013000    0.300000 1
H      H        4     0.302000   -0.121000    0.023000 1
H      H        4     0.585000   -0.038000    0.458000 1
H      H        4     0.796000   -0.047000    0.463000 1
H      H        4     0.710000    0.069000    0.472000 1
H      H        4     0.773000   -0.002000    0.157000 1
#END

#############################################################
#             ______       _    _          _                #
#            (_____ \     \ \  / /        | |               #
#             _____) )   _ \ \/ / |_  ____| |               #
#            |  ____/ | | | )  (|  _)/ _  | |               #
#            | |    | |_| |/ /\ \ |_( (_| | |___            #
#            |_|     \__  /_/  \_\___)__|_|_____)           #
#                   (____/                                  #
#---------------------(version    0.6.2)--------------------#
#       A Python package for random crystal generation      #
#       url: https://github.com/qzhu2017/pyxtal             #
#       @Zhu's group at University of Nevada Las Vegas      #
#############################################################
data_8-SG-14
#Energy: -292.0783575 eV/cell

_symmetry_space_group_name_H-M 'P21/c'
_symmetry_Int_Tables_number                   14
_symmetry_cell_setting                monoclinic
_cell_length_a            5.860306
_cell_length_b           15.254480
_cell_length_c           13.235432
_cell_angle_alpha        90.000000
_cell_angle_beta         94.736251
_cell_angle_gamma        90.000000
_cell_volume           1179.153431

loop_
 _symmetry_equiv_pos_site_id
 _symmetry_equiv_pos_as_xyz
1 'x, y, z'
2 '-x, y+1/2, -z+1/2'
3 '-x, -y, -z'
4 'x, -y+1/2, z+1/2'

loop_
 _atom_site_label
 _atom_site_type_symbol
 _atom_site_symmetry_multiplicity
 _atom_site_fract_x
 _atom_site_fract_y
 _atom_site_fract_z
 _atom_site_occupancy
C      C        4    -0.366000    0.716000    0.232000 1
Si     Si       4    -0.082000    0.713000    0.254000 1
O      O        4     0.038000    0.704000    0.154000 1
O      O        4    -0.017000    0.640000    0.324000 1
Si     Si       4     0.121000    0.560000    0.348000 1
C      C        4     0.267000    0.521000    0.254000 1
O      O        4    -0.052000    0.492000    0.382000 1
O      O        4     0.276000    0.589000    0.438000 1
Si     Si       4     0.362000    0.666000    0.503000 1
C      C        4     0.648000    0.663000    0.513000 1
O      O        4     0.274000    0.652000    0.610000 1
O      O        4     0.277000    0.758000    0.470000 1
Si     Si       4     0.148000    0.828000    0.404000 1
C      C        4     0.333000    0.903000    0.370000 1
O      O        4    -0.024000    0.871000    0.471000 1
O      O        4     0.009000    0.793000    0.309000 1
H      H        4    -0.415000    0.707000    0.151000 1
H      H        4    -0.441000    0.663000    0.274000 1
H      H        4    -0.430000    0.778000    0.258000 1
H      H        4     0.131000    0.758000    0.153000 1
H      H        4     0.212000    0.454000    0.236000 1
H      H        4     0.237000    0.561000    0.186000 1
H      H        4     0.449000    0.521000    0.278000 1
H      H        4    -0.189000    0.528000    0.373000 1
H      H        4     0.705000    0.610000    0.466000 1
H      H        4     0.712000    0.651000    0.591000 1
H      H        4     0.714000    0.725000    0.487000 1
H      H        4     0.179000    0.599000    0.601000 1
H      H        4     0.292000    0.967000    0.403000 1
H      H        4     0.507000    0.885000    0.398000 1
H      H        4     0.323000    0.909000    0.288000 1
H      H        4     0.007000    0.840000    0.536000 1
#END

#############################################################
#             ______       _    _          _                #
#            (_____ \     \ \  / /        | |               #
#             _____) )   _ \ \/ / |_  ____| |               #
#            |  ____/ | | | )  (|  _)/ _  | |               #
#            | |    | |_| |/ /\ \ |_( (_| | |___            #
#            |_|     \__  /_/  \_\___)__|_|_____)           #
#                   (____/                                  #
#---------------------(version    0.6.2)--------------------#
#       A Python package for random crystal generation      #
#       url: https://github.com/qzhu2017/pyxtal             #
#       @Zhu's group at University of Nevada Las Vegas      #
#############################################################
data_9-SG-14
#Energy: -292.03535 eV/cell

_symmetry_space_group_name_H-M 'P21/c'
_symmetry_Int_Tables_number                   14
_symmetry_cell_setting                monoclinic
_cell_length_a            8.072076
_cell_length_b            9.733813
_cell_length_c           15.397183
_cell_angle_alpha        90.000000
_cell_angle_beta         90.534614
_cell_angle_gamma        90.000000
_cell_volume           1209.736005

loop_
 _symmetry_equiv_pos_site_id
 _symmetry_equiv_pos_as_xyz
1 'x, y, z'
2 '-x, y+1/2, -z+1/2'
3 '-x, -y, -z'
4 'x, -y+1/2, z+1/2'

loop_
 _atom_site_label
 _atom_site_type_symbol
 _atom_site_symmetry_multiplicity
 _atom_site_fract_x
 _atom_site_fract_y
 _atom_site_fract_z
 _atom_site_occupancy
C      C        4     0.123000    0.832000    0.828000 1
Si     Si       4     0.287000    0.743000    0.864000 1
O      O        4     0.247000    0.588000    0.868000 1
O      O        4     0.433000    0.763000    0.805000 1
Si     Si       4     0.614000    0.803000    0.800000 1
C      C        4     0.712000    0.690000    0.737000 1
O      O        4     0.620000    0.949000    0.760000 1
O      O        4     0.709000    0.814000    0.886000 1
Si     Si       4     0.737000    0.807000    0.985000 1
C      C        4     0.889000    0.697000    1.008000 1
O      O        4     0.791000    0.952000    1.012000 1
O      O        4     0.585000    0.780000    1.040000 1
Si     Si       4     0.401000    0.758000    1.041000 1
C      C        4     0.353000    0.599000    1.074000 1
O      O        4     0.323000    0.869000    1.101000 1
O      O        4     0.350000    0.792000    0.950000 1
H      H        4     0.022000    0.761000    0.815000 1
H      H        4     0.082000    0.906000    0.877000 1
H      H        4     0.153000    0.886000    0.769000 1
H      H        4     0.318000    0.547000    0.823000 1
H      H        4     0.626000    0.611000    0.714000 1
H      H        4     0.812000    0.640000    0.773000 1
H      H        4     0.764000    0.743000    0.681000 1
H      H        4     0.666000    1.003000    0.808000 1
H      H        4     0.847000    0.621000    1.055000 1
H      H        4     0.928000    0.644000    0.950000 1
H      H        4     0.994000    0.752000    1.036000 1
H      H        4     0.709000    0.973000    1.056000 1
H      H        4     0.286000    0.545000    1.023000 1
H      H        4     0.276000    0.605000    1.131000 1
H      H        4     0.467000    0.543000    1.089000 1
H      H        4     0.258000    0.924000    1.059000 1
#END

#############################################################
#             ______       _    _          _                #
#            (_____ \     \ \  / /        | |               #
#             _____) )   _ \ \/ / |_  ____| |               #
#            |  ____/ | | | )  (|  _)/ _  | |               #
#            | |    | |_| |/ /\ \ |_( (_| | |___            #
#            |_|     \__  /_/  \_\___)__|_|_____)           #
#                   (____/                                  #
#---------------------(version    0.6.2)--------------------#
#       A Python package for random crystal generation      #
#       url: https://github.com/qzhu2017/pyxtal             #
#       @Zhu's group at University of Nevada Las Vegas      #
#############################################################
data_10-SG-14
#Energy: -291.98856 eV/cell

_symmetry_space_group_name_H-M 'P 1 21/n 1'
_symmetry_Int_Tables_number                   14
_symmetry_cell_setting                monoclinic
_cell_length_a            7.674864
_cell_length_b           15.947334
_cell_length_c            9.857397
_cell_angle_alpha        90.000000
_cell_angle_beta         89.098446
_cell_angle_gamma        90.000000
_cell_volume           1206.333144

loop_
 _symmetry_equiv_pos_site_id
 _symmetry_equiv_pos_as_xyz
1 'x, y, z'
2 '-x-1/2, y+1/2, -z-1/2'
3 '-x, -y, -z'
4 'x-1/2, -y+1/2, z-1/2'

loop_
 _atom_site_label
 _atom_site_type_symbol
 _atom_site_symmetry_multiplicity
 _atom_site_fract_x
 _atom_site_fract_y
 _atom_site_fract_z
 _atom_site_occupancy
C      C        4     1.301000    0.709000    0.901000 1
Si     Si       4     1.207000    0.754000    0.767000 1
O      O        4     1.301000    0.730000    0.633000 1
O      O        4     1.019000    0.736000    0.749000 1
Si     Si       4     0.855000    0.701000    0.808000 1
C      C        4     0.759000    0.635000    0.700000 1
O      O        4     0.894000    0.658000    0.943000 1
O      O        4     0.745000    0.777000    0.837000 1
Si     Si       4     0.736000    0.872000    0.839000 1
C      C        4     0.600000    0.905000    0.721000 1
O      O        4     0.661000    0.895000    0.982000 1
O      O        4     0.909000    0.919000    0.822000 1
Si     Si       4     1.107000    0.928000    0.797000 1
C      C        4     1.143000    0.990000    0.662000 1
O      O        4     1.184000    0.971000    0.923000 1
O      O        4     1.210000    0.848000    0.781000 1
H      H        4     1.210000    0.668000    0.955000 1
H      H        4     1.412000    0.672000    0.866000 1
H      H        4     1.348000    0.757000    0.969000 1
H      H        4     1.212000    0.698000    0.585000 1
H      H        4     0.742000    0.574000    0.748000 1
H      H        4     0.632000    0.660000    0.672000 1
H      H        4     0.841000    0.628000    0.609000 1
H      H        4     0.842000    0.696000    1.011000 1
H      H        4     0.552000    0.851000    0.664000 1
H      H        4     0.491000    0.938000    0.769000 1
H      H        4     0.667000    0.948000    0.651000 1
H      H        4     0.746000    0.938000    1.012000 1
H      H        4     1.019000    1.007000    0.617000 1
H      H        4     1.222000    0.956000    0.586000 1
H      H        4     1.212000    1.046000    0.694000 1
H      H        4     1.268000    0.929000    0.950000 1
#END

#############################################################
#             ______       _    _          _                #
#            (_____ \     \ \  / /        | |               #
#             _____) )   _ \ \/ / |_  ____| |               #
#            |  ____/ | | | )  (|  _)/ _  | |               #
#            | |    | |_| |/ /\ \ |_( (_| | |___            #
#            |_|     \__  /_/  \_\___)__|_|_____)           #
#                   (____/                                  #
#---------------------(version    0.6.2)--------------------#
#       A Python package for random crystal generation      #
#       url: https://github.com/qzhu2017/pyxtal             #
#       @Zhu's group at University of Nevada Las Vegas      #
#############################################################
data_11-SG-14
#Energy: -291.9248325 eV/cell

_symmetry_space_group_name_H-M 'P21/c'
_symmetry_Int_Tables_number                   14
_symmetry_cell_setting                monoclinic
_cell_length_a            7.743198
_cell_length_b           12.995386
_cell_length_c           11.642672
_cell_angle_alpha        90.000000
_cell_angle_beta         97.059110
_cell_angle_gamma        90.000000
_cell_volume           1162.673230

loop_
 _symmetry_equiv_pos_site_id
 _symmetry_equiv_pos_as_xyz
1 'x, y, z'
2 '-x, y+1/2, -z+1/2'
3 '-x, -y, -z'
4 'x, -y+1/2, z+1/2'

loop_
 _atom_site_label
 _atom_site_type_symbol
 _atom_site_symmetry_multiplicity
 _atom_site_fract_x
 _atom_site_fract_y
 _atom_site_fract_z
 _atom_site_occupancy
C      C        4     1.107000    0.638000    0.484000 1
Si     Si       4     1.041000    0.672000    0.610000 1
O      O        4     1.110000    0.779000    0.652000 1
O      O        4     0.849000    0.674000    0.609000 1
Si     Si       4     0.675000    0.644000    0.548000 1
C      C        4     0.541000    0.745000    0.538000 1
O      O        4     0.692000    0.597000    0.427000 1
O      O        4     0.615000    0.563000    0.627000 1
Si     Si       4     0.660000    0.501000    0.737000 1
C      C        4     0.540000    0.546000    0.836000 1
O      O        4     0.610000    0.386000    0.711000 1
O      O        4     0.852000    0.499000    0.787000 1
Si     Si       4     1.047000    0.524000    0.794000 1
C      C        4     1.118000    0.574000    0.922000 1
O      O        4     1.140000    0.419000    0.780000 1
O      O        4     1.101000    0.597000    0.704000 1
H      H        4     0.998000    0.626000    0.419000 1
H      H        4     1.183000    0.568000    0.496000 1
H      H        4     1.189000    0.698000    0.454000 1
H      H        4     1.004000    0.816000    0.664000 1
H      H        4     0.433000    0.730000    0.588000 1
H      H        4     0.489000    0.758000    0.447000 1
H      H        4     0.610000    0.813000    0.572000 1
H      H        4     0.592000    0.625000    0.377000 1
H      H        4     0.455000    0.486000    0.861000 1
H      H        4     0.461000    0.611000    0.799000 1
H      H        4     0.624000    0.573000    0.911000 1
H      H        4     0.717000    0.352000    0.743000 1
H      H        4     1.009000    0.588000    0.971000 1
H      H        4     1.211000    0.523000    0.970000 1
H      H        4     1.182000    0.647000    0.909000 1
H      H        4     1.198000    0.431000    0.711000 1
#END

#############################################################
#             ______       _    _          _                #
#            (_____ \     \ \  / /        | |               #
#             _____) )   _ \ \/ / |_  ____| |               #
#            |  ____/ | | | )  (|  _)/ _  | |               #
#            | |    | |_| |/ /\ \ |_( (_| | |___            #
#            |_|     \__  /_/  \_\___)__|_|_____)           #
#                   (____/                                  #
#---------------------(version    0.6.2)--------------------#
#       A Python package for random crystal generation      #
#       url: https://github.com/qzhu2017/pyxtal             #
#       @Zhu's group at University of Nevada Las Vegas      #
#############################################################
data_12-SG-14
#Energy: -291.908755 eV/cell

_symmetry_space_group_name_H-M 'P21/c'
_symmetry_Int_Tables_number                   14
_symmetry_cell_setting                monoclinic
_cell_length_a            5.871740
_cell_length_b           12.546105
_cell_length_c           15.939105
_cell_angle_alpha        90.000000
_cell_angle_beta         92.338640
_cell_angle_gamma        90.000000
_cell_volume           1173.215503

loop_
 _symmetry_equiv_pos_site_id
 _symmetry_equiv_pos_as_xyz
1 'x, y, z'
2 '-x, y+1/2, -z+1/2'
3 '-x, -y, -z'
4 'x, -y+1/2, z+1/2'

loop_
 _atom_site_label
 _atom_site_type_symbol
 _atom_site_symmetry_multiplicity
 _atom_site_fract_x
 _atom_site_fract_y
 _atom_site_fract_z
 _atom_site_occupancy
C      C        4     1.224000    0.696000    0.455000 1
Si     Si       4     0.948000    0.665000    0.464000 1
O      O        4     0.888000    0.658000    0.557000 1
O      O        4     0.891000    0.559000    0.423000 1
Si     Si       4     0.768000    0.513000    0.346000 1
C      C        4     0.528000    0.454000    0.372000 1
O      O        4     0.929000    0.431000    0.307000 1
O      O        4     0.742000    0.608000    0.287000 1
Si     Si       4     0.603000    0.690000    0.237000 1
C      C        4     0.320000    0.671000    0.228000 1
O      O        4     0.704000    0.688000    0.148000 1
O      O        4     0.658000    0.796000    0.280000 1
Si     Si       4     0.755000    0.840000    0.363000 1
C      C        4     0.579000    0.928000    0.405000 1
O      O        4     0.988000    0.894000    0.349000 1
O      O        4     0.787000    0.744000    0.420000 1
H      H        4     1.309000    0.631000    0.424000 1
H      H        4     1.243000    0.769000    0.420000 1
H      H        4     1.303000    0.706000    0.518000 1
H      H        4     0.778000    0.716000    0.566000 1
H      H        4     0.379000    0.487000    0.340000 1
H      H        4     0.508000    0.461000    0.439000 1
H      H        4     0.539000    0.370000    0.356000 1
H      H        4     1.037000    0.417000    0.355000 1
H      H        4     0.267000    0.665000    0.162000 1
H      H        4     0.266000    0.599000    0.260000 1
H      H        4     0.234000    0.739000    0.256000 1
H      H        4     0.815000    0.631000    0.157000 1
H      H        4     0.526000    0.899000    0.466000 1
H      H        4     0.428000    0.939000    0.363000 1
H      H        4     0.665000    1.005000    0.414000 1
H      H        4     1.002000    0.894000    0.287000 1
#END

#############################################################
#             ______       _    _          _                #
#            (_____ \     \ \  / /        | |               #
#             _____) )   _ \ \/ / |_  ____| |               #
#            |  ____/ | | | )  (|  _)/ _  | |               #
#            | |    | |_| |/ /\ \ |_( (_| | |___            #
#            |_|     \__  /_/  \_\___)__|_|_____)           #
#                   (____/                                  #
#---------------------(version    0.6.2)--------------------#
#       A Python package for random crystal generation      #
#       url: https://github.com/qzhu2017/pyxtal             #
#       @Zhu's group at University of Nevada Las Vegas      #
#############################################################
data_13-SG-14
#Energy: -291.9054 eV/cell

_symmetry_space_group_name_H-M 'P21/c'
_symmetry_Int_Tables_number                   14
_symmetry_cell_setting                monoclinic
_cell_length_a            5.805935
_cell_length_b           13.384881
_cell_length_c           15.551032
_cell_angle_alpha        90.000000
_cell_angle_beta         95.232091
_cell_angle_gamma        90.000000
_cell_volume           1203.462666

loop_
 _symmetry_equiv_pos_site_id
 _symmetry_equiv_pos_as_xyz
1 'x, y, z'
2 '-x, y+1/2, -z+1/2'
3 '-x, -y, -z'
4 'x, -y+1/2, z+1/2'

loop_
 _atom_site_label
 _atom_site_type_symbol
 _atom_site_symmetry_multiplicity
 _atom_site_fract_x
 _atom_site_fract_y
 _atom_site_fract_z
 _atom_site_occupancy
C      C        4     1.321000    0.270000    0.762000 1
Si     Si       4     1.034000    0.277000    0.739000 1
O      O        4     0.943000    0.187000    0.684000 1
O      O        4     0.969000    0.373000    0.692000 1
Si     Si       4     0.845000    0.472000    0.695000 1
C      C        4     0.620000    0.476000    0.620000 1
O      O        4     1.031000    0.548000    0.675000 1
O      O        4     0.761000    0.502000    0.783000 1
Si     Si       4     0.716000    0.490000    0.878000 1
C      C        4     0.432000    0.504000    0.886000 1
O      O        4     0.847000    0.577000    0.927000 1
O      O        4     0.797000    0.393000    0.921000 1
Si     Si       4     0.893000    0.290000    0.910000 1
C      C        4     0.729000    0.202000    0.949000 1
O      O        4     1.141000    0.286000    0.955000 1
O      O        4     0.896000    0.281000    0.814000 1
H      H        4     1.387000    0.203000    0.733000 1
H      H        4     1.365000    0.267000    0.831000 1
H      H        4     1.403000    0.335000    0.736000 1
H      H        4     0.845000    0.156000    0.724000 1
H      H        4     0.596000    0.403000    0.589000 1
H      H        4     0.464000    0.495000    0.650000 1
H      H        4     0.651000    0.532000    0.572000 1
H      H        4     1.155000    0.503000    0.665000 1
H      H        4     0.365000    0.439000    0.917000 1
H      H        4     0.342000    0.513000    0.821000 1
H      H        4     0.402000    0.571000    0.924000 1
H      H        4     0.928000    0.610000    0.882000 1
H      H        4     0.659000    0.153000    0.897000 1
H      H        4     0.586000    0.236000    0.979000 1
H      H        4     0.835000    0.158000    0.997000 1
H      H        4     1.146000    0.347000    0.990000 1
#END

#############################################################
#             ______       _    _          _                #
#            (_____ \     \ \  / /        | |               #
#             _____) )   _ \ \/ / |_  ____| |               #
#            |  ____/ | | | )  (|  _)/ _  | |               #
#            | |    | |_| |/ /\ \ |_( (_| | |___            #
#            |_|     \__  /_/  \_\___)__|_|_____)           #
#                   (____/                                  #
#---------------------(version    0.6.2)--------------------#
#       A Python package for random crystal generation      #
#       url: https://github.com/qzhu2017/pyxtal             #
#       @Zhu's group at University of Nevada Las Vegas      #
#############################################################
data_14-SG-14
#Energy: -291.873045 eV/cell

_symmetry_space_group_name_H-M 'P 1 21/n 1'
_symmetry_Int_Tables_number                   14
_symmetry_cell_setting                monoclinic
_cell_length_a           10.003658
_cell_length_b            9.788051
_cell_length_c           12.875927
_cell_angle_alpha        90.000000
_cell_angle_beta         84.246428
_cell_angle_gamma        90.000000
_cell_volume           1254.411935

loop_
 _symmetry_equiv_pos_site_id
 _symmetry_equiv_pos_as_xyz
1 'x, y, z'
2 '-x-1/2, y+1/2, -z-1/2'
3 '-x, -y, -z'
4 'x-1/2, -y+1/2, z-1/2'

loop_
 _atom_site_label
 _atom_site_type_symbol
 _atom_site_symmetry_multiplicity
 _atom_site_fract_x
 _atom_site_fract_y
 _atom_site_fract_z
 _atom_site_occupancy
C      C        4     0.904000    0.684000    0.471000 1
Si     Si       4     0.765000    0.763000    0.441000 1
O      O        4     0.777000    0.919000    0.454000 1
O      O        4     0.736000    0.733000    0.332000 1
Si     Si       4     0.633000    0.683000    0.262000 1
C      C        4     0.635000    0.786000    0.158000 1
O      O        4     0.673000    0.536000    0.227000 1
O      O        4     0.487000    0.675000    0.312000 1
Si     Si       4     0.370000    0.688000    0.398000 1
C      C        4     0.259000    0.801000    0.361000 1
O      O        4     0.304000    0.546000    0.408000 1
O      O        4     0.407000    0.718000    0.507000 1
Si     Si       4     0.519000    0.742000    0.576000 1
C      C        4     0.513000    0.900000    0.626000 1
O      O        4     0.507000    0.632000    0.663000 1
O      O        4     0.642000    0.710000    0.505000 1
H      H        4     0.881000    0.613000    0.535000 1
H      H        4     0.949000    0.627000    0.403000 1
H      H        4     0.975000    0.760000    0.493000 1
H      H        4     0.780000    0.953000    0.382000 1
H      H        4     0.535000    0.830000    0.155000 1
H      H        4     0.663000    0.727000    0.088000 1
H      H        4     0.707000    0.868000    0.164000 1
H      H        4     0.597000    0.482000    0.260000 1
H      H        4     0.165000    0.749000    0.350000 1
H      H        4     0.239000    0.879000    0.420000 1
H      H        4     0.298000    0.849000    0.287000 1
H      H        4     0.309000    0.528000    0.481000 1
H      H        4     0.502000    0.893000    0.711000 1
H      H        4     0.428000    0.955000    0.601000 1
H      H        4     0.605000    0.955000    0.602000 1
H      H        4     0.590000    0.578000    0.645000 1
#END

#############################################################
#             ______       _    _          _                #
#            (_____ \     \ \  / /        | |               #
#             _____) )   _ \ \/ / |_  ____| |               #
#            |  ____/ | | | )  (|  _)/ _  | |               #
#            | |    | |_| |/ /\ \ |_( (_| | |___            #
#            |_|     \__  /_/  \_\___)__|_|_____)           #
#                   (____/                                  #
#---------------------(version    0.6.2)--------------------#
#       A Python package for random crystal generation      #
#       url: https://github.com/qzhu2017/pyxtal             #
#       @Zhu's group at University of Nevada Las Vegas      #
#############################################################
data_15-SG-14
#Energy: -291.8564475 eV/cell

_symmetry_space_group_name_H-M 'P21/c'
_symmetry_Int_Tables_number                   14
_symmetry_cell_setting                monoclinic
_cell_length_a            8.363935
_cell_length_b           14.309593
_cell_length_c           10.815973
_cell_angle_alpha        90.000000
_cell_angle_beta        107.643679
_cell_angle_gamma        90.000000
_cell_volume           1233.610743

loop_
 _symmetry_equiv_pos_site_id
 _symmetry_equiv_pos_as_xyz
1 'x, y, z'
2 '-x, y+1/2, -z+1/2'
3 '-x, -y, -z'
4 'x, -y+1/2, z+1/2'

loop_
 _atom_site_label
 _atom_site_type_symbol
 _atom_site_symmetry_multiplicity
 _atom_site_fract_x
 _atom_site_fract_y
 _atom_site_fract_z
 _atom_site_occupancy
C      C        4     0.639000    0.286000    0.099000 1
Si     Si       4     0.555000    0.232000    0.200000 1
O      O        4     0.573000    0.294000    0.322000 1
O      O        4     0.374000    0.211000    0.142000 1
Si     Si       4     0.236000    0.192000    0.020000 1
C      C        4     0.076000    0.265000    0.002000 1
O      O        4     0.303000    0.192000   -0.099000 1
O      O        4     0.191000    0.093000    0.038000 1
Si     Si       4     0.239000    0.007000    0.121000 1
C      C        4     0.117000   -0.003000    0.217000 1
O      O        4     0.212000   -0.078000    0.026000 1
O      O        4     0.425000   -0.001000    0.199000 1
Si     Si       4     0.607000    0.035000    0.255000 1
C      C        4     0.680000    0.004000    0.411000 1
O      O        4     0.710000   -0.018000    0.179000 1
O      O        4     0.635000    0.139000    0.243000 1
H      H        4     0.545000    0.301000    0.007000 1
H      H        4     0.738000    0.243000    0.083000 1
H      H        4     0.693000    0.352000    0.142000 1
H      H        4     0.458000    0.296000    0.327000 1
H      H        4    -0.036000    0.226000    0.001000 1
H      H        4     0.105000    0.315000    0.082000 1
H      H        4     0.051000    0.303000   -0.090000 1
H      H        4     0.284000    0.126000   -0.126000 1
H      H        4     0.042000   -0.067000    0.194000 1
H      H        4     0.033000    0.057000    0.203000 1
H      H        4     0.194000   -0.005000    0.318000 1
H      H        4     0.315000   -0.114000    0.067000 1
H      H        4     0.582000   -0.029000    0.442000 1
H      H        4     0.785000   -0.044000    0.425000 1
H      H        4     0.724000    0.067000    0.469000 1
H      H        4     0.756000    0.033000    0.138000 1
#END

#############################################################
#             ______       _    _          _                #
#            (_____ \     \ \  / /        | |               #
#             _____) )   _ \ \/ / |_  ____| |               #
#            |  ____/ | | | )  (|  _)/ _  | |               #
#            | |    | |_| |/ /\ \ |_( (_| | |___            #
#            |_|     \__  /_/  \_\___)__|_|_____)           #
#                   (____/                                  #
#---------------------(version    0.6.2)--------------------#
#       A Python package for random crystal generation      #
#       url: https://github.com/qzhu2017/pyxtal             #
#       @Zhu's group at University of Nevada Las Vegas      #
#############################################################
data_16-SG-14
#Energy: -291.8356 eV/cell

_symmetry_space_group_name_H-M 'P21/c'
_symmetry_Int_Tables_number                   14
_symmetry_cell_setting                monoclinic
_cell_length_a           10.746146
_cell_length_b            9.390679
_cell_length_c           12.455303
_cell_angle_alpha        90.000000
_cell_angle_beta        114.493752
_cell_angle_gamma        90.000000
_cell_volume           1143.795852

loop_
 _symmetry_equiv_pos_site_id
 _symmetry_equiv_pos_as_xyz
1 'x, y, z'
2 '-x, y+1/2, -z+1/2'
3 '-x, -y, -z'
4 'x, -y+1/2, z+1/2'

loop_
 _atom_site_label
 _atom_site_type_symbol
 _atom_site_symmetry_multiplicity
 _atom_site_fract_x
 _atom_site_fract_y
 _atom_site_fract_z
 _atom_site_occupancy
C      C        4     0.084000    0.346000   -0.048000 1
Si     Si       4     0.123000    0.299000    0.092000 1
O      O        4    -0.002000    0.314000    0.121000 1
O      O        4     0.167000    0.147000    0.115000 1
Si     Si       4     0.275000    0.044000    0.195000 1
C      C        4     0.194000   -0.093000    0.225000 1
O      O        4     0.355000   -0.012000    0.125000 1
O      O        4     0.380000    0.104000    0.312000 1
Si     Si       4     0.450000    0.218000    0.407000 1
C      C        4     0.439000    0.169000    0.531000 1
O      O        4     0.603000    0.223000    0.428000 1
O      O        4     0.396000    0.368000    0.376000 1
Si     Si       4     0.299000    0.468000    0.287000 1
C      C        4     0.182000    0.533000    0.330000 1
O      O        4     0.386000    0.589000    0.267000 1
O      O        4     0.242000    0.380000    0.178000 1
H      H        4    -0.022000    0.380000   -0.089000 1
H      H        4     0.099000    0.256000   -0.097000 1
H      H        4     0.150000    0.434000   -0.050000 1
H      H        4    -0.019000    0.217000    0.137000 1
H      H        4     0.228000   -0.103000    0.320000 1
H      H        4     0.084000   -0.074000    0.184000 1
H      H        4     0.217000   -0.190000    0.189000 1
H      H        4     0.447000    0.026000    0.171000 1
H      H        4     0.381000    0.070000    0.517000 1
H      H        4     0.388000    0.252000    0.559000 1
H      H        4     0.541000    0.153000    0.600000 1
H      H        4     0.615000    0.324000    0.413000 1
H      H        4     0.079000    0.506000    0.267000 1
H      H        4     0.198000    0.488000    0.415000 1
H      H        4     0.192000    0.648000    0.337000 1
H      H        4     0.367000    0.585000    0.183000 1
#END

#############################################################
#             ______       _    _          _                #
#            (_____ \     \ \  / /        | |               #
#             _____) )   _ \ \/ / |_  ____| |               #
#            |  ____/ | | | )  (|  _)/ _  | |               #
#            | |    | |_| |/ /\ \ |_( (_| | |___            #
#            |_|     \__  /_/  \_\___)__|_|_____)           #
#                   (____/                                  #
#---------------------(version    0.6.2)--------------------#
#       A Python package for random crystal generation      #
#       url: https://github.com/qzhu2017/pyxtal             #
#       @Zhu's group at University of Nevada Las Vegas      #
#############################################################
data_17-SG-14
#Energy: -291.8316125 eV/cell

_symmetry_space_group_name_H-M 'P21/c'
_symmetry_Int_Tables_number                   14
_symmetry_cell_setting                monoclinic
_cell_length_a            7.496418
_cell_length_b           10.695988
_cell_length_c           14.587199
_cell_angle_alpha        90.000000
_cell_angle_beta        103.204030
_cell_angle_gamma        90.000000
_cell_volume           1138.703349

loop_
 _symmetry_equiv_pos_site_id
 _symmetry_equiv_pos_as_xyz
1 'x, y, z'
2 '-x, y+1/2, -z+1/2'
3 '-x, -y, -z'
4 'x, -y+1/2, z+1/2'

loop_
 _atom_site_label
 _atom_site_type_symbol
 _atom_site_symmetry_multiplicity
 _atom_site_fract_x
 _atom_site_fract_y
 _atom_site_fract_z
 _atom_site_occupancy
C      C        4    -0.282000   -0.020000    0.219000 1
Si     Si       4    -0.141000    0.097000    0.263000 1
O      O        4    -0.138000    0.196000    0.186000 1
O      O        4    -0.193000    0.164000    0.345000 1
Si     Si       4    -0.111000    0.203000    0.446000 1
C      C        4    -0.125000    0.358000    0.458000 1
O      O        4    -0.216000    0.134000    0.511000 1
O      O        4     0.085000    0.152000    0.467000 1
Si     Si       4     0.294000    0.162000    0.484000 1
C      C        4     0.383000    0.307000    0.495000 1
O      O        4     0.378000    0.084000    0.572000 1
O      O        4     0.341000    0.100000    0.399000 1
Si     Si       4     0.250000    0.049000    0.302000 1
C      C        4     0.301000    0.137000    0.216000 1
O      O        4     0.311000   -0.089000    0.294000 1
O      O        4     0.049000    0.046000    0.300000 1
H      H        4    -0.388000   -0.028000    0.259000 1
H      H        4    -0.344000   -0.002000    0.146000 1
H      H        4    -0.204000   -0.107000    0.226000 1
H      H        4    -0.190000    0.271000    0.208000 1
H      H        4    -0.191000    0.399000    0.390000 1
H      H        4    -0.207000    0.379000    0.509000 1
H      H        4     0.009000    0.399000    0.482000 1
H      H        4    -0.118000    0.085000    0.550000 1
H      H        4     0.280000    0.379000    0.490000 1
H      H        4     0.455000    0.321000    0.439000 1
H      H        4     0.481000    0.314000    0.562000 1
H      H        4     0.409000    0.006000    0.545000 1
H      H        4     0.179000    0.178000    0.172000 1
H      H        4     0.366000    0.078000    0.172000 1
H      H        4     0.395000    0.211000    0.248000 1
H      H        4     0.411000   -0.097000    0.351000 1
#END

#############################################################
#             ______       _    _          _                #
#            (_____ \     \ \  / /        | |               #
#             _____) )   _ \ \/ / |_  ____| |               #
#            |  ____/ | | | )  (|  _)/ _  | |               #
#            | |    | |_| |/ /\ \ |_( (_| | |___            #
#            |_|     \__  /_/  \_\___)__|_|_____)           #
#                   (____/                                  #
#---------------------(version    0.6.2)--------------------#
#       A Python package for random crystal generation      #
#       url: https://github.com/qzhu2017/pyxtal             #
#       @Zhu's group at University of Nevada Las Vegas      #
#############################################################
data_18-SG-14
#Energy: -291.81838 eV/cell

_symmetry_space_group_name_H-M 'P21/c'
_symmetry_Int_Tables_number                   14
_symmetry_cell_setting                monoclinic
_cell_length_a            7.182444
_cell_length_b           10.334308
_cell_length_c           15.961146
_cell_angle_alpha        90.000000
_cell_angle_beta         93.640920
_cell_angle_gamma        90.000000
_cell_volume           1182.334240

loop_
 _symmetry_equiv_pos_site_id
 _symmetry_equiv_pos_as_xyz
1 'x, y, z'
2 '-x, y+1/2, -z+1/2'
3 '-x, -y, -z'
4 'x, -y+1/2, z+1/2'

loop_
 _atom_site_label
 _atom_site_type_symbol
 _atom_site_symmetry_multiplicity
 _atom_site_fract_x
 _atom_site_fract_y
 _atom_site_fract_z
 _atom_site_occupancy
C      C        4    -0.169000    0.003000    0.882000 1
Si     Si       4    -0.086000    0.124000    0.825000 1
O      O        4    -0.182000    0.255000    0.843000 1
O      O        4    -0.117000    0.095000    0.732000 1
Si     Si       4    -0.008000    0.060000    0.657000 1
C      C        4    -0.024000    0.174000    0.583000 1
O      O        4    -0.094000   -0.069000    0.623000 1
O      O        4     0.187000    0.028000    0.693000 1
Si     Si       4     0.395000    0.052000    0.708000 1
C      C        4     0.479000    0.179000    0.658000 1
O      O        4     0.493000   -0.076000    0.684000 1
O      O        4     0.422000    0.068000    0.803000 1
Si     Si       4     0.307000    0.095000    0.877000 1
C      C        4     0.408000    0.199000    0.946000 1
O      O        4     0.283000   -0.038000    0.918000 1
O      O        4     0.121000    0.145000    0.841000 1
H      H        4    -0.230000   -0.071000    0.840000 1
H      H        4    -0.277000    0.041000    0.921000 1
H      H        4    -0.060000   -0.039000    0.923000 1
H      H        4    -0.073000    0.309000    0.860000 1
H      H        4    -0.093000    0.134000    0.526000 1
H      H        4    -0.107000    0.254000    0.605000 1
H      H        4     0.111000    0.210000    0.567000 1
H      H        4    -0.201000   -0.078000    0.657000 1
H      H        4     0.370000    0.230000    0.622000 1
H      H        4     0.583000    0.146000    0.616000 1
H      H        4     0.544000    0.246000    0.704000 1
H      H        4     0.385000   -0.131000    0.668000 1
H      H        4     0.318000    0.283000    0.954000 1
H      H        4     0.430000    0.151000    1.007000 1
H      H        4     0.541000    0.231000    0.926000 1
H      H        4     0.356000   -0.092000    0.883000 1
#END

#############################################################
#             ______       _    _          _                #
#            (_____ \     \ \  / /        | |               #
#             _____) )   _ \ \/ / |_  ____| |               #
#            |  ____/ | | | )  (|  _)/ _  | |               #
#            | |    | |_| |/ /\ \ |_( (_| | |___            #
#            |_|     \__  /_/  \_\___)__|_|_____)           #
#                   (____/                                  #
#---------------------(version    0.6.2)--------------------#
#       A Python package for random crystal generation      #
#       url: https://github.com/qzhu2017/pyxtal             #
#       @Zhu's group at University of Nevada Las Vegas      #
#############################################################
data_19-SG-14
#Energy: -291.8028225 eV/cell

_symmetry_space_group_name_H-M 'P21/c'
_symmetry_Int_Tables_number                   14
_symmetry_cell_setting                monoclinic
_cell_length_a            7.917533
_cell_length_b            9.221294
_cell_length_c           16.780664
_cell_angle_alpha        90.000000
_cell_angle_beta         93.762486
_cell_angle_gamma        90.000000
_cell_volume           1222.513952

loop_
 _symmetry_equiv_pos_site_id
 _symmetry_equiv_pos_as_xyz
1 'x, y, z'
2 '-x, y+1/2, -z+1/2'
3 '-x, -y, -z'
4 'x, -y+1/2, z+1/2'

loop_
 _atom_site_label
 _atom_site_type_symbol
 _atom_site_symmetry_multiplicity
 _atom_site_fract_x
 _atom_site_fract_y
 _atom_site_fract_z
 _atom_site_occupancy
C      C        4     0.442000    0.473000    0.842000 1
Si     Si       4     0.287000    0.595000    0.837000 1
O      O        4     0.346000    0.739000    0.801000 1
O      O        4     0.133000    0.543000    0.786000 1
Si     Si       4    -0.057000    0.527000    0.789000 1
C      C        4    -0.162000    0.600000    0.709000 1
O      O        4    -0.102000    0.363000    0.794000 1
O      O        4    -0.095000    0.592000    0.868000 1
Si     Si       4    -0.159000    0.711000    0.921000 1
C      C        4    -0.240000    0.855000    0.873000 1
O      O        4    -0.286000    0.639000    0.975000 1
O      O        4    -0.006000    0.755000    0.974000 1
Si     Si       4     0.185000    0.733000    0.983000 1
C      C        4     0.288000    0.890000    0.976000 1
O      O        4     0.230000    0.660000    1.065000 1
O      O        4     0.223000    0.624000    0.919000 1
H      H        4     0.407000    0.378000    0.807000 1
H      H        4     0.469000    0.440000    0.904000 1
H      H        4     0.556000    0.520000    0.819000 1
H      H        4     0.261000    0.757000    0.758000 1
H      H        4    -0.237000    0.515000    0.678000 1
H      H        4    -0.249000    0.684000    0.725000 1
H      H        4    -0.074000    0.644000    0.668000 1
H      H        4    -0.146000    0.358000    0.848000 1
H      H        4    -0.371000    0.871000    0.887000 1
H      H        4    -0.236000    0.843000    0.809000 1
H      H        4    -0.167000    0.952000    0.891000 1
H      H        4    -0.226000    0.648000    1.027000 1
H      H        4     0.196000    0.978000    0.967000 1
H      H        4     0.369000    0.888000    0.926000 1
H      H        4     0.367000    0.909000    1.031000 1
H      H        4     0.271000    0.566000    1.048000 1
#END

#############################################################
#             ______       _    _          _                #
#            (_____ \     \ \  / /        | |               #
#             _____) )   _ \ \/ / |_  ____| |               #
#            |  ____/ | | | )  (|  _)/ _  | |               #
#            | |    | |_| |/ /\ \ |_( (_| | |___            #
#            |_|     \__  /_/  \_\___)__|_|_____)           #
#                   (____/                                  #
#---------------------(version    0.6.2)--------------------#
#       A Python package for random crystal generation      #
#       url: https://github.com/qzhu2017/pyxtal             #
#       @Zhu's group at University of Nevada Las Vegas      #
#############################################################
data_20-SG-14
#Energy: -291.8003225 eV/cell

_symmetry_space_group_name_H-M 'P21/c'
_symmetry_Int_Tables_number                   14
_symmetry_cell_setting                monoclinic
_cell_length_a            7.815620
_cell_length_b            9.719611
_cell_length_c           15.907610
_cell_angle_alpha        90.000000
_cell_angle_beta        102.999434
_cell_angle_gamma        90.000000
_cell_volume           1177.449197

loop_
 _symmetry_equiv_pos_site_id
 _symmetry_equiv_pos_as_xyz
1 'x, y, z'
2 '-x, y+1/2, -z+1/2'
3 '-x, -y, -z'
4 'x, -y+1/2, z+1/2'

loop_
 _atom_site_label
 _atom_site_type_symbol
 _atom_site_symmetry_multiplicity
 _atom_site_fract_x
 _atom_site_fract_y
 _atom_site_fract_z
 _atom_site_occupancy
C      C        4     1.328000    0.861000    0.218000 1
Si     Si       4     1.209000    0.733000    0.164000 1
O      O        4     1.278000    0.593000    0.202000 1
O      O        4     1.019000    0.739000    0.163000 1
Si     Si       4     0.868000    0.820000    0.179000 1
C      C        4     0.767000    0.742000    0.247000 1
O      O        4     0.925000    0.968000    0.208000 1
O      O        4     0.752000    0.833000    0.091000 1
Si     Si       4     0.731000    0.809000   -0.005000 1
C      C        4     0.575000    0.692000   -0.040000 1
O      O        4     0.679000    0.949000   -0.048000 1
O      O        4     0.900000    0.775000   -0.034000 1
Si     Si       4     1.097000    0.742000   -0.024000 1
C      C        4     1.117000    0.594000   -0.074000 1
O      O        4     1.171000    0.862000   -0.070000 1
O      O        4     1.208000    0.735000    0.068000 1
H      H        4     1.246000    0.930000    0.246000 1
H      H        4     1.427000    0.818000    0.271000 1
H      H        4     1.394000    0.919000    0.177000 1
H      H        4     1.178000    0.556000    0.222000 1
H      H        4     0.634000    0.713000    0.214000 1
H      H        4     0.760000    0.811000    0.301000 1
H      H        4     0.839000    0.650000    0.273000 1
H      H        4     0.867000    1.023000    0.157000 1
H      H        4     0.526000    0.651000    0.014000 1
H      H        4     0.467000    0.742000   -0.086000 1
H      H        4     0.626000    0.609000   -0.073000 1
H      H        4     0.769000    0.956000   -0.081000 1
H      H        4     0.988000    0.549000   -0.098000 1
H      H        4     1.197000    0.523000   -0.029000 1
H      H        4     1.179000    0.613000   -0.127000 1
H      H        4     1.262000    0.902000   -0.023000 1
#END

#############################################################
#             ______       _    _          _                #
#            (_____ \     \ \  / /        | |               #
#             _____) )   _ \ \/ / |_  ____| |               #
#            |  ____/ | | | )  (|  _)/ _  | |               #
#            | |    | |_| |/ /\ \ |_( (_| | |___            #
#            |_|     \__  /_/  \_\___)__|_|_____)           #
#                   (____/                                  #
#---------------------(version    0.6.2)--------------------#
#       A Python package for random crystal generation      #
#       url: https://github.com/qzhu2017/pyxtal             #
#       @Zhu's group at University of Nevada Las Vegas      #
#############################################################
data_21-SG-14
#Energy: -291.79168 eV/cell

_symmetry_space_group_name_H-M 'P21/c'
_symmetry_Int_Tables_number                   14
_symmetry_cell_setting                monoclinic
_cell_length_a            7.186370
_cell_length_b           10.309817
_cell_length_c           16.257565
_cell_angle_alpha        90.000000
_cell_angle_beta         98.003837
_cell_angle_gamma        90.000000
_cell_volume           1192.791996

loop_
 _symmetry_equiv_pos_site_id
 _symmetry_equiv_pos_as_xyz
1 'x, y, z'
2 '-x, y+1/2, -z+1/2'
3 '-x, -y, -z'
4 'x, -y+1/2, z+1/2'

loop_
 _atom_site_label
 _atom_site_type_symbol
 _atom_site_symmetry_multiplicity
 _atom_site_fract_x
 _atom_site_fract_y
 _atom_site_fract_z
 _atom_site_occupancy
C      C        4     1.232000    0.251000    0.394000 1
Si     Si       4     1.123000    0.134000    0.334000 1
O      O        4     1.222000    0.001000    0.350000 1
O      O        4     0.922000    0.114000    0.346000 1
Si     Si       4     0.749000    0.162000    0.381000 1
C      C        4     0.678000    0.055000    0.447000 1
O      O        4     0.785000    0.295000    0.423000 1
O      O        4     0.604000    0.190000    0.306000 1
Si     Si       4     0.593000    0.208000    0.212000 1
C      C        4     0.484000    0.085000    0.159000 1
O      O        4     0.488000    0.338000    0.189000 1
O      O        4     0.797000    0.231000    0.200000 1
Si     Si       4     0.979000    0.198000    0.167000 1
C      C        4     0.967000    0.076000    0.098000 1
O      O        4     1.050000    0.324000    0.130000 1
O      O        4     1.117000    0.165000    0.242000 1
H      H        4     1.138000    0.293000    0.433000 1
H      H        4     1.353000    0.211000    0.434000 1
H      H        4     1.280000    0.326000    0.355000 1
H      H        4     1.117000   -0.053000    0.363000 1
H      H        4     0.539000    0.020000    0.424000 1
H      H        4     0.676000    0.102000    0.507000 1
H      H        4     0.775000   -0.027000    0.455000 1
H      H        4     0.697000    0.348000    0.388000 1
H      H        4     0.436000    0.016000    0.202000 1
H      H        4     0.363000    0.122000    0.118000 1
H      H        4     0.574000    0.034000    0.121000 1
H      H        4     0.590000    0.392000    0.173000 1
H      H        4     0.826000    0.039000    0.082000 1
H      H        4     1.059000   -0.002000    0.124000 1
H      H        4     1.016000    0.111000    0.041000 1
H      H        4     1.172000    0.336000    0.164000 1
#END

#############################################################
#             ______       _    _          _                #
#            (_____ \     \ \  / /        | |               #
#             _____) )   _ \ \/ / |_  ____| |               #
#            |  ____/ | | | )  (|  _)/ _  | |               #
#            | |    | |_| |/ /\ \ |_( (_| | |___            #
#            |_|     \__  /_/  \_\___)__|_|_____)           #
#                   (____/                                  #
#---------------------(version    0.6.2)--------------------#
#       A Python package for random crystal generation      #
#       url: https://github.com/qzhu2017/pyxtal             #
#       @Zhu's group at University of Nevada Las Vegas      #
#############################################################
data_22-SG-14
#Energy: -291.7663075 eV/cell

_symmetry_space_group_name_H-M 'P 1 21/n 1'
_symmetry_Int_Tables_number                   14
_symmetry_cell_setting                monoclinic
_cell_length_a            7.442732
_cell_length_b           16.364053
_cell_length_c            9.483547
_cell_angle_alpha        90.000000
_cell_angle_beta         78.349201
_cell_angle_gamma        90.000000
_cell_volume           1131.234510

loop_
 _symmetry_equiv_pos_site_id
 _symmetry_equiv_pos_as_xyz
1 'x, y, z'
2 '-x-1/2, y+1/2, -z-1/2'
3 '-x, -y, -z'
4 'x-1/2, -y+1/2, z-1/2'

loop_
 _atom_site_label
 _atom_site_type_symbol
 _atom_site_symmetry_multiplicity
 _atom_site_fract_x
 _atom_site_fract_y
 _atom_site_fract_z
 _atom_site_occupancy
C      C        4     1.238000    0.652000    0.132000 1
Si     Si       4     1.123000    0.716000    0.256000 1
O      O        4     1.133000    0.682000    0.409000 1
O      O        4     0.918000    0.715000    0.249000 1
Si     Si       4     0.733000    0.752000    0.231000 1
C      C        4     0.579000    0.733000    0.380000 1
O      O        4     0.678000    0.707000    0.103000 1
O      O        4     0.729000    0.843000    0.197000 1
Si     Si       4     0.835000    0.921000    0.167000 1
C      C        4     0.760000    0.992000    0.292000 1
O      O        4     0.810000    0.951000    0.017000 1
O      O        4     1.029000    0.893000    0.156000 1
Si     Si       4     1.208000    0.887000    0.203000 1
C      C        4     1.235000    0.944000    0.344000 1
O      O        4     1.356000    0.906000    0.068000 1
O      O        4     1.219000    0.798000    0.238000 1
H      H        4     1.145000    0.625000    0.070000 1
H      H        4     1.301000    0.605000    0.187000 1
H      H        4     1.346000    0.685000    0.060000 1
H      H        4     1.006000    0.666000    0.450000 1
H      H        4     0.476000    0.691000    0.355000 1
H      H        4     0.512000    0.790000    0.423000 1
H      H        4     0.647000    0.706000    0.458000 1
H      H        4     0.670000    0.753000    0.037000 1
H      H        4     0.648000    0.967000    0.372000 1
H      H        4     0.711000    1.045000    0.241000 1
H      H        4     0.868000    1.013000    0.346000 1
H      H        4     0.731000    0.907000   -0.008000 1
H      H        4     1.114000    0.980000    0.387000 1
H      H        4     1.263000    0.904000    0.429000 1
H      H        4     1.352000    0.984000    0.310000 1
H      H        4     1.279000    0.934000    0.010000 1
#END

#############################################################
#             ______       _    _          _                #
#            (_____ \     \ \  / /        | |               #
#             _____) )   _ \ \/ / |_  ____| |               #
#            |  ____/ | | | )  (|  _)/ _  | |               #
#            | |    | |_| |/ /\ \ |_( (_| | |___            #
#            |_|     \__  /_/  \_\___)__|_|_____)           #
#                   (____/                                  #
#---------------------(version    0.6.2)--------------------#
#       A Python package for random crystal generation      #
#       url: https://github.com/qzhu2017/pyxtal             #
#       @Zhu's group at University of Nevada Las Vegas      #
#############################################################
data_23-SG-14
#Energy: -291.76508 eV/cell

_symmetry_space_group_name_H-M 'P21/c'
_symmetry_Int_Tables_number                   14
_symmetry_cell_setting                monoclinic
_cell_length_a            7.105348
_cell_length_b           10.023512
_cell_length_c           16.003096
_cell_angle_alpha        90.000000
_cell_angle_beta         94.103894
_cell_angle_gamma        90.000000
_cell_volume           1136.826747

loop_
 _symmetry_equiv_pos_site_id
 _symmetry_equiv_pos_as_xyz
1 'x, y, z'
2 '-x, y+1/2, -z+1/2'
3 '-x, -y, -z'
4 'x, -y+1/2, z+1/2'

loop_
 _atom_site_label
 _atom_site_type_symbol
 _atom_site_symmetry_multiplicity
 _atom_site_fract_x
 _atom_site_fract_y
 _atom_site_fract_z
 _atom_site_occupancy
C      C        4     0.242000    0.588000    0.288000 1
Si     Si       4     0.327000    0.722000    0.242000 1
O      O        4     0.241000    0.853000    0.273000 1
O      O        4     0.295000    0.714000    0.148000 1
Si     Si       4     0.401000    0.692000    0.070000 1
C      C        4     0.390000    0.823000    0.006000 1
O      O        4     0.298000    0.572000    0.025000 1
O      O        4     0.600000    0.650000    0.104000 1
Si     Si       4     0.810000    0.679000    0.123000 1
C      C        4     0.886000    0.827000    0.091000 1
O      O        4     0.924000    0.565000    0.084000 1
O      O        4     0.838000    0.672000    0.218000 1
Si     Si       4     0.724000    0.687000    0.294000 1
C      C        4     0.821000    0.792000    0.365000 1
O      O        4     0.699000    0.548000    0.333000 1
O      O        4     0.536000    0.741000    0.260000 1
H      H        4     0.175000    0.522000    0.241000 1
H      H        4     0.137000    0.618000    0.331000 1
H      H        4     0.353000    0.533000    0.324000 1
H      H        4     0.352000    0.897000    0.299000 1
H      H        4     0.315000    0.794000   -0.053000 1
H      H        4     0.313000    0.904000    0.033000 1
H      H        4     0.529000    0.859000   -0.008000 1
H      H        4     0.190000    0.561000    0.060000 1
H      H        4     0.774000    0.887000    0.061000 1
H      H        4     0.996000    0.813000    0.048000 1
H      H        4     0.946000    0.882000    0.146000 1
H      H        4     0.824000    0.513000    0.053000 1
H      H        4     0.724000    0.875000    0.374000 1
H      H        4     0.847000    0.741000    0.425000 1
H      H        4     0.953000    0.831000    0.345000 1
H      H        4     0.769000    0.490000    0.297000 1
#END

#############################################################
#             ______       _    _          _                #
#            (_____ \     \ \  / /        | |               #
#             _____) )   _ \ \/ / |_  ____| |               #
#            |  ____/ | | | )  (|  _)/ _  | |               #
#            | |    | |_| |/ /\ \ |_( (_| | |___            #
#            |_|     \__  /_/  \_\___)__|_|_____)           #
#                   (____/                                  #
#---------------------(version    0.6.2)--------------------#
#       A Python package for random crystal generation      #
#       url: https://github.com/qzhu2017/pyxtal             #
#       @Zhu's group at University of Nevada Las Vegas      #
#############################################################
data_24-SG-14
#Energy: -291.739085 eV/cell

_symmetry_space_group_name_H-M 'P21/c'
_symmetry_Int_Tables_number                   14
_symmetry_cell_setting                monoclinic
_cell_length_a            8.607931
_cell_length_b            9.891924
_cell_length_c           15.236504
_cell_angle_alpha        90.000000
_cell_angle_beta        106.264927
_cell_angle_gamma        90.000000
_cell_volume           1245.448201

loop_
 _symmetry_equiv_pos_site_id
 _symmetry_equiv_pos_as_xyz
1 'x, y, z'
2 '-x, y+1/2, -z+1/2'
3 '-x, -y, -z'
4 'x, -y+1/2, z+1/2'

loop_
 _atom_site_label
 _atom_site_type_symbol
 _atom_site_symmetry_multiplicity
 _atom_site_fract_x
 _atom_site_fract_y
 _atom_site_fract_z
 _atom_site_occupancy
C      C        4    -0.387000    0.809000    0.276000 1
Si     Si       4    -0.215000    0.735000    0.334000 1
O      O        4    -0.237000    0.580000    0.334000 1
O      O        4    -0.080000    0.767000    0.292000 1
Si     Si       4     0.092000    0.823000    0.317000 1
C      C        4     0.217000    0.719000    0.283000 1
O      O        4     0.089000    0.965000    0.273000 1
O      O        4     0.134000    0.847000    0.419000 1
Si     Si       4     0.221000    0.820000    0.518000 1
C      C        4     0.365000    0.702000    0.539000 1
O      O        4     0.292000    0.957000    0.558000 1
O      O        4     0.086000    0.785000    0.561000 1
Si     Si       4    -0.096000    0.758000    0.534000 1
C      C        4    -0.137000    0.601000    0.561000 1
O      O        4    -0.177000    0.864000    0.582000 1
O      O        4    -0.156000    0.786000    0.432000 1
H      H        4    -0.477000    0.730000    0.250000 1
H      H        4    -0.432000    0.876000    0.321000 1
H      H        4    -0.368000    0.867000    0.219000 1
H      H        4    -0.165000    0.546000    0.298000 1
H      H        4     0.150000    0.631000    0.248000 1
H      H        4     0.317000    0.685000    0.339000 1
H      H        4     0.266000    0.774000    0.234000 1
H      H        4     0.120000    1.023000    0.328000 1
H      H        4     0.336000    0.624000    0.582000 1
H      H        4     0.377000    0.655000    0.477000 1
H      H        4     0.481000    0.748000    0.575000 1
H      H        4     0.227000    0.975000    0.600000 1
H      H        4    -0.202000    0.546000    0.500000 1
H      H        4    -0.211000    0.604000    0.608000 1
H      H        4    -0.024000    0.548000    0.593000 1
H      H        4    -0.239000    0.917000    0.528000 1
#END

#############################################################
#             ______       _    _          _                #
#            (_____ \     \ \  / /        | |               #
#             _____) )   _ \ \/ / |_  ____| |               #
#            |  ____/ | | | )  (|  _)/ _  | |               #
#            | |    | |_| |/ /\ \ |_( (_| | |___            #
#            |_|     \__  /_/  \_\___)__|_|_____)           #
#                   (____/                                  #
#---------------------(version    0.6.2)--------------------#
#       A Python package for random crystal generation      #
#       url: https://github.com/qzhu2017/pyxtal             #
#       @Zhu's group at University of Nevada Las Vegas      #
#############################################################
data_25-SG-14
#Energy: -291.684945 eV/cell

_symmetry_space_group_name_H-M 'P 1 21/n 1'
_symmetry_Int_Tables_number                   14
_symmetry_cell_setting                monoclinic
_cell_length_a            7.153497
_cell_length_b           10.303887
_cell_length_c           16.357274
_cell_angle_alpha        90.000000
_cell_angle_beta         81.625970
_cell_angle_gamma        90.000000
_cell_volume           1192.821068

loop_
 _symmetry_equiv_pos_site_id
 _symmetry_equiv_pos_as_xyz
1 'x, y, z'
2 '-x-1/2, y+1/2, -z-1/2'
3 '-x, -y, -z'
4 'x-1/2, -y+1/2, z-1/2'

loop_
 _atom_site_label
 _atom_site_type_symbol
 _atom_site_symmetry_multiplicity
 _atom_site_fract_x
 _atom_site_fract_y
 _atom_site_fract_z
 _atom_site_occupancy
C      C        4     0.612000    0.712000    0.111000 1
Si     Si       4     0.681000    0.594000    0.170000 1
O      O        4     0.588000    0.462000    0.155000 1
O      O        4     0.631000    0.626000    0.262000 1
Si     Si       4     0.723000    0.659000    0.336000 1
C      C        4     0.692000    0.542000    0.408000 1
O      O        4     0.631000    0.788000    0.370000 1
O      O        4     0.927000    0.691000    0.302000 1
Si     Si       4     1.139000    0.667000    0.288000 1
C      C        4     1.213000    0.542000    0.341000 1
O      O        4     1.231000    0.796000    0.311000 1
O      O        4     1.187000    0.648000    0.196000 1
Si     Si       4     1.088000    0.620000    0.122000 1
C      C        4     1.201000    0.514000    0.054000 1
O      O        4     1.076000    0.754000    0.080000 1
O      O        4     0.892000    0.572000    0.157000 1
H      H        4     0.514000    0.673000    0.072000 1
H      H        4     0.542000    0.788000    0.151000 1
H      H        4     0.732000    0.754000    0.071000 1
H      H        4     0.701000    0.407000    0.141000 1
H      H        4     0.614000    0.463000    0.384000 1
H      H        4     0.609000    0.581000    0.464000 1
H      H        4     0.823000    0.505000    0.423000 1
H      H        4     0.529000    0.798000    0.336000 1
H      H        4     1.098000    0.492000    0.379000 1
H      H        4     1.289000    0.473000    0.298000 1
H      H        4     1.309000    0.579000    0.382000 1
H      H        4     1.119000    0.851000    0.327000 1
H      H        4     1.111000    0.431000    0.047000 1
H      H        4     1.329000    0.480000    0.076000 1
H      H        4     1.238000    0.562000   -0.005000 1
H      H        4     1.142000    0.806000    0.116000 1
#END

#############################################################
#             ______       _    _          _                #
#            (_____ \     \ \  / /        | |               #
#             _____) )   _ \ \/ / |_  ____| |               #
#            |  ____/ | | | )  (|  _)/ _  | |               #
#            | |    | |_| |/ /\ \ |_( (_| | |___            #
#            |_|     \__  /_/  \_\___)__|_|_____)           #
#                   (____/                                  #
#---------------------(version    0.6.2)--------------------#
#       A Python package for random crystal generation      #
#       url: https://github.com/qzhu2017/pyxtal             #
#       @Zhu's group at University of Nevada Las Vegas      #
#############################################################
data_26-SG-14
#Energy: -291.674285 eV/cell

_symmetry_space_group_name_H-M 'P21/c'
_symmetry_Int_Tables_number                   14
_symmetry_cell_setting                monoclinic
_cell_length_a            8.262471
_cell_length_b           14.420190
_cell_length_c           10.050843
_cell_angle_alpha        90.000000
_cell_angle_beta        103.069760
_cell_angle_gamma        90.000000
_cell_volume           1166.500521

loop_
 _symmetry_equiv_pos_site_id
 _symmetry_equiv_pos_as_xyz
1 'x, y, z'
2 '-x, y+1/2, -z+1/2'
3 '-x, -y, -z'
4 'x, -y+1/2, z+1/2'

loop_
 _atom_site_label
 _atom_site_type_symbol
 _atom_site_symmetry_multiplicity
 _atom_site_fract_x
 _atom_site_fract_y
 _atom_site_fract_z
 _atom_site_occupancy
C      C        4     1.271000    0.797000    0.769000 1
Si     Si       4     1.089000    0.826000    0.804000 1
O      O        4     1.069000    0.775000    0.935000 1
O      O        4     0.941000    0.801000    0.690000 1
Si     Si       4     0.796000    0.845000    0.591000 1
C      C        4     0.615000    0.813000    0.626000 1
O      O        4     0.800000    0.817000    0.443000 1
O      O        4     0.830000    0.949000    0.597000 1
Si     Si       4     0.803000    1.047000    0.641000 1
C      C        4     0.656000    1.060000    0.730000 1
O      O        4     0.764000    1.106000    0.510000 1
O      O        4     0.972000    1.074000    0.725000 1
Si     Si       4     1.128000    1.027000    0.804000 1
C      C        4     1.208000    1.080000    0.952000 1
O      O        4     1.253000    1.026000    0.710000 1
O      O        4     1.074000    0.929000    0.827000 1
H      H        4     1.251000    0.764000    0.670000 1
H      H        4     1.337000    0.750000    0.846000 1
H      H        4     1.347000    0.859000    0.769000 1
H      H        4     1.161000    0.731000    0.957000 1
H      H        4     0.542000    0.776000    0.538000 1
H      H        4     0.639000    0.767000    0.715000 1
H      H        4     0.545000    0.873000    0.645000 1
H      H        4     0.899000    0.777000    0.455000 1
H      H        4     0.600000    0.995000    0.748000 1
H      H        4     0.559000    1.107000    0.676000 1
H      H        4     0.712000    1.091000    0.829000 1
H      H        4     0.760000    1.059000    0.439000 1
H      H        4     1.207000    1.033000    1.036000 1
H      H        4     1.134000    1.140000    0.962000 1
H      H        4     1.336000    1.102000    0.955000 1
H      H        4     1.205000    1.074000    0.642000 1
#END

#############################################################
#             ______       _    _          _                #
#            (_____ \     \ \  / /        | |               #
#             _____) )   _ \ \/ / |_  ____| |               #
#            |  ____/ | | | )  (|  _)/ _  | |               #
#            | |    | |_| |/ /\ \ |_( (_| | |___            #
#            |_|     \__  /_/  \_\___)__|_|_____)           #
#                   (____/                                  #
#---------------------(version    0.6.2)--------------------#
#       A Python package for random crystal generation      #
#       url: https://github.com/qzhu2017/pyxtal             #
#       @Zhu's group at University of Nevada Las Vegas      #
#############################################################
data_27-SG-14
#Energy: -291.672415 eV/cell

_symmetry_space_group_name_H-M 'P21/c'
_symmetry_Int_Tables_number                   14
_symmetry_cell_setting                monoclinic
_cell_length_a           12.385570
_cell_length_b           11.907114
_cell_length_c            8.043281
_cell_angle_alpha        90.000000
_cell_angle_beta         91.337321
_cell_angle_gamma        90.000000
_cell_volume           1185.870981

loop_
 _symmetry_equiv_pos_site_id
 _symmetry_equiv_pos_as_xyz
1 'x, y, z'
2 '-x, y+1/2, -z+1/2'
3 '-x, -y, -z'
4 'x, -y+1/2, z+1/2'

loop_
 _atom_site_label
 _atom_site_type_symbol
 _atom_site_symmetry_multiplicity
 _atom_site_fract_x
 _atom_site_fract_y
 _atom_site_fract_z
 _atom_site_occupancy
C      C        4    -0.013000    0.565000    0.798000 1
Si     Si       4     0.087000    0.592000    0.668000 1
O      O        4     0.052000    0.686000    0.543000 1
O      O        4     0.117000    0.488000    0.570000 1
Si     Si       4     0.206000    0.401000    0.568000 1
C      C        4     0.290000    0.433000    0.414000 1
O      O        4     0.156000    0.283000    0.540000 1
O      O        4     0.255000    0.406000    0.743000 1
Si     Si       4     0.349000    0.426000    0.863000 1
C      C        4     0.471000    0.417000    0.778000 1
O      O        4     0.339000    0.340000    1.007000 1
O      O        4     0.329000    0.541000    0.935000 1
Si     Si       4     0.258000    0.643000    0.913000 1
C      C        4     0.332000    0.760000    0.907000 1
O      O        4     0.183000    0.644000    1.064000 1
O      O        4     0.193000    0.626000    0.753000 1
H      H        4    -0.038000    0.477000    0.783000 1
H      H        4    -0.082000    0.619000    0.769000 1
H      H        4     0.012000    0.580000    0.926000 1
H      H        4     0.104000    0.747000    0.568000 1
H      H        4     0.259000    0.505000    0.346000 1
H      H        4     0.294000    0.362000    0.329000 1
H      H        4     0.371000    0.453000    0.460000 1
H      H        4     0.078000    0.300000    0.525000 1
H      H        4     0.466000    0.392000    0.649000 1
H      H        4     0.518000    0.353000    0.845000 1
H      H        4     0.513000    0.497000    0.790000 1
H      H        4     0.270000    0.304000    0.982000 1
H      H        4     0.318000    0.803000    0.790000 1
H      H        4     0.312000    0.816000    1.009000 1
H      H        4     0.418000    0.738000    0.918000 1
H      H        4     0.208000    0.576000    1.121000 1
#END

#############################################################
#             ______       _    _          _                #
#            (_____ \     \ \  / /        | |               #
#             _____) )   _ \ \/ / |_  ____| |               #
#            |  ____/ | | | )  (|  _)/ _  | |               #
#            | |    | |_| |/ /\ \ |_( (_| | |___            #
#            |_|     \__  /_/  \_\___)__|_|_____)           #
#                   (____/                                  #
#---------------------(version    0.6.2)--------------------#
#       A Python package for random crystal generation      #
#       url: https://github.com/qzhu2017/pyxtal             #
#       @Zhu's group at University of Nevada Las Vegas      #
#############################################################
data_28-SG-14
#Energy: -291.6707525 eV/cell

_symmetry_space_group_name_H-M 'P 1 21/n 1'
_symmetry_Int_Tables_number                   14
_symmetry_cell_setting                monoclinic
_cell_length_a            9.321494
_cell_length_b           12.365999
_cell_length_c           10.870691
_cell_angle_alpha        90.000000
_cell_angle_beta         72.180002
_cell_angle_gamma        90.000000
_cell_volume           1192.941530

loop_
 _symmetry_equiv_pos_site_id
 _symmetry_equiv_pos_as_xyz
1 'x, y, z'
2 '-x-1/2, y+1/2, -z-1/2'
3 '-x, -y, -z'
4 'x-1/2, -y+1/2, z-1/2'

loop_
 _atom_site_label
 _atom_site_type_symbol
 _atom_site_symmetry_multiplicity
 _atom_site_fract_x
 _atom_site_fract_y
 _atom_site_fract_z
 _atom_site_occupancy
C      C        4     0.350000    0.176000    0.434000 1
Si     Si       4     0.538000    0.180000    0.376000 1
O      O        4     0.591000    0.269000    0.271000 1
O      O        4     0.601000    0.071000    0.318000 1
Si     Si       4     0.703000    0.010000    0.204000 1
C      C        4     0.730000    0.073000    0.063000 1
O      O        4     0.639000   -0.106000    0.201000 1
O      O        4     0.851000   -0.004000    0.233000 1
Si     Si       4     0.928000    0.025000    0.333000 1
C      C        4     1.072000    0.108000    0.265000 1
O      O        4     0.983000   -0.081000    0.378000 1
O      O        4     0.804000    0.073000    0.444000 1
Si     Si       4     0.732000    0.164000    0.534000 1
C      C        4     0.848000    0.262000    0.551000 1
O      O        4     0.653000    0.109000    0.665000 1
O      O        4     0.610000    0.205000    0.480000 1
H      H        4     0.310000    0.097000    0.418000 1
H      H        4     0.301000    0.237000    0.387000 1
H      H        4     0.316000    0.192000    0.538000 1
H      H        4     0.657000    0.313000    0.307000 1
H      H        4     0.694000    0.021000   -0.003000 1
H      H        4     0.665000    0.148000    0.076000 1
H      H        4     0.849000    0.092000    0.020000 1
H      H        4     0.538000   -0.103000    0.265000 1
H      H        4     1.078000    0.120000    0.164000 1
H      H        4     1.177000    0.071000    0.269000 1
H      H        4     1.058000    0.186000    0.312000 1
H      H        4     0.951000   -0.135000    0.326000 1
H      H        4     0.812000    0.339000    0.523000 1
H      H        4     0.964000    0.247000    0.495000 1
H      H        4     0.844000    0.267000    0.653000 1
H      H        4     0.693000    0.036000    0.643000 1
#END

#############################################################
#             ______       _    _          _                #
#            (_____ \     \ \  / /        | |               #
#             _____) )   _ \ \/ / |_  ____| |               #
#            |  ____/ | | | )  (|  _)/ _  | |               #
#            | |    | |_| |/ /\ \ |_( (_| | |___            #
#            |_|     \__  /_/  \_\___)__|_|_____)           #
#                   (____/                                  #
#---------------------(version    0.6.2)--------------------#
#       A Python package for random crystal generation      #
#       url: https://github.com/qzhu2017/pyxtal             #
#       @Zhu's group at University of Nevada Las Vegas      #
#############################################################
data_29-SG-14
#Energy: -291.6655825 eV/cell

_symmetry_space_group_name_H-M 'P21/c'
_symmetry_Int_Tables_number                   14
_symmetry_cell_setting                monoclinic
_cell_length_a            8.700821
_cell_length_b           14.085998
_cell_length_c           10.488617
_cell_angle_alpha        90.000000
_cell_angle_beta        106.515907
_cell_angle_gamma        90.000000
_cell_volume           1232.444339

loop_
 _symmetry_equiv_pos_site_id
 _symmetry_equiv_pos_as_xyz
1 'x, y, z'
2 '-x, y+1/2, -z+1/2'
3 '-x, -y, -z'
4 'x, -y+1/2, z+1/2'

loop_
 _atom_site_label
 _atom_site_type_symbol
 _atom_site_symmetry_multiplicity
 _atom_site_fract_x
 _atom_site_fract_y
 _atom_site_fract_z
 _atom_site_occupancy
C      C        4     1.257000    0.248000    0.378000 1
Si     Si       4     1.098000    0.306000    0.283000 1
O      O        4     1.087000    0.296000    0.134000 1
O      O        4     0.943000    0.269000    0.305000 1
Si     Si       4     0.795000    0.304000    0.340000 1
C      C        4     0.624000    0.263000    0.235000 1
O      O        4     0.807000    0.272000    0.484000 1
O      O        4     0.813000    0.410000    0.345000 1
Si     Si       4     0.775000    0.509000    0.289000 1
C      C        4     0.635000    0.514000    0.142000 1
O      O        4     0.728000    0.569000    0.395000 1
O      O        4     0.933000    0.548000    0.275000 1
Si     Si       4     1.102000    0.513000    0.283000 1
C      C        4     1.150000    0.532000    0.141000 1
O      O        4     1.222000    0.565000    0.400000 1
O      O        4     1.105000    0.410000    0.322000 1
H      H        4     1.217000    0.194000    0.435000 1
H      H        4     1.320000    0.215000    0.314000 1
H      H        4     1.337000    0.297000    0.446000 1
H      H        4     0.979000    0.270000    0.094000 1
H      H        4     0.563000    0.219000    0.291000 1
H      H        4     0.544000    0.320000    0.188000 1
H      H        4     0.651000    0.220000    0.158000 1
H      H        4     0.803000    0.334000    0.527000 1
H      H        4     0.591000    0.444000    0.107000 1
H      H        4     0.535000    0.557000    0.151000 1
H      H        4     0.686000    0.545000    0.068000 1
H      H        4     0.814000    0.615000    0.418000 1
H      H        4     1.051000    0.568000    0.071000 1
H      H        4     1.175000    0.465000    0.100000 1
H      H        4     1.256000    0.577000    0.161000 1
H      H        4     1.258000    0.511000    0.462000 1
#END

#############################################################
#             ______       _    _          _                #
#            (_____ \     \ \  / /        | |               #
#             _____) )   _ \ \/ / |_  ____| |               #
#            |  ____/ | | | )  (|  _)/ _  | |               #
#            | |    | |_| |/ /\ \ |_( (_| | |___            #
#            |_|     \__  /_/  \_\___)__|_|_____)           #
#                   (____/                                  #
#---------------------(version    0.6.2)--------------------#
#       A Python package for random crystal generation      #
#       url: https://github.com/qzhu2017/pyxtal             #
#       @Zhu's group at University of Nevada Las Vegas      #
#############################################################
data_30-SG-14
#Energy: -291.6647 eV/cell

_symmetry_space_group_name_H-M 'P21/c'
_symmetry_Int_Tables_number                   14
_symmetry_cell_setting                monoclinic
_cell_length_a            7.907437
_cell_length_b           10.372715
_cell_length_c           14.671962
_cell_angle_alpha        90.000000
_cell_angle_beta         97.089560
_cell_angle_gamma        90.000000
_cell_volume           1194.216859

loop_
 _symmetry_equiv_pos_site_id
 _symmetry_equiv_pos_as_xyz
1 'x, y, z'
2 '-x, y+1/2, -z+1/2'
3 '-x, -y, -z'
4 'x, -y+1/2, z+1/2'

loop_
 _atom_site_label
 _atom_site_type_symbol
 _atom_site_symmetry_multiplicity
 _atom_site_fract_x
 _atom_site_fract_y
 _atom_site_fract_z
 _atom_site_occupancy
C      C        4     0.087000    0.609000    0.670000 1
Si     Si       4     0.239000    0.707000    0.641000 1
O      O        4     0.180000    0.850000    0.639000 1
O      O        4     0.289000    0.670000    0.548000 1
Si     Si       4     0.317000    0.706000    0.451000 1
C      C        4     0.225000    0.845000    0.416000 1
O      O        4     0.248000    0.594000    0.387000 1
O      O        4     0.509000    0.713000    0.452000 1
Si     Si       4     0.672000    0.704000    0.519000 1
C      C        4     0.775000    0.845000    0.522000 1
O      O        4     0.781000    0.595000    0.485000 1
O      O        4     0.615000    0.659000    0.608000 1
Si     Si       4     0.592000    0.670000    0.709000 1
C      C        4     0.709000    0.785000    0.767000 1
O      O        4     0.635000    0.534000    0.751000 1
O      O        4     0.402000    0.695000    0.708000 1
H      H        4     0.049000    0.542000    0.614000 1
H      H        4    -0.024000    0.666000    0.683000 1
H      H        4     0.134000    0.555000    0.732000 1
H      H        4     0.263000    0.894000    0.684000 1
H      H        4     0.132000    0.827000    0.356000 1
H      H        4     0.160000    0.888000    0.470000 1
H      H        4     0.323000    0.911000    0.398000 1
H      H        4     0.209000    0.535000    0.433000 1
H      H        4     0.704000    0.912000    0.475000 1
H      H        4     0.790000    0.886000    0.591000 1
H      H        4     0.901000    0.830000    0.501000 1
H      H        4     0.709000    0.567000    0.431000 1
H      H        4     0.624000    0.855000    0.793000 1
H      H        4     0.790000    0.740000    0.824000 1
H      H        4     0.791000    0.834000    0.724000 1
H      H        4     0.674000    0.490000    0.697000 1
#END

#############################################################
#             ______       _    _          _                #
#            (_____ \     \ \  / /        | |               #
#             _____) )   _ \ \/ / |_  ____| |               #
#            |  ____/ | | | )  (|  _)/ _  | |               #
#            | |    | |_| |/ /\ \ |_( (_| | |___            #
#            |_|     \__  /_/  \_\___)__|_|_____)           #
#                   (____/                                  #
#---------------------(version    0.6.2)--------------------#
#       A Python package for random crystal generation      #
#       url: https://github.com/qzhu2017/pyxtal             #
#       @Zhu's group at University of Nevada Las Vegas      #
#############################################################
data_31-SG-14
#Energy: -291.6632425 eV/cell

_symmetry_space_group_name_H-M 'P21/c'
_symmetry_Int_Tables_number                   14
_symmetry_cell_setting                monoclinic
_cell_length_a            7.795808
_cell_length_b           14.117061
_cell_length_c           11.176168
_cell_angle_alpha        90.000000
_cell_angle_beta         92.331513
_cell_angle_gamma        90.000000
_cell_volume           1228.962629

loop_
 _symmetry_equiv_pos_site_id
 _symmetry_equiv_pos_as_xyz
1 'x, y, z'
2 '-x, y+1/2, -z+1/2'
3 '-x, -y, -z'
4 'x, -y+1/2, z+1/2'

loop_
 _atom_site_label
 _atom_site_type_symbol
 _atom_site_symmetry_multiplicity
 _atom_site_fract_x
 _atom_site_fract_y
 _atom_site_fract_z
 _atom_site_occupancy
C      C        4     0.328000    0.897000    0.065000 1
Si     Si       4     0.436000    0.906000    0.197000 1
O      O        4     0.346000    0.846000    0.291000 1
O      O        4     0.620000    0.877000    0.195000 1
Si     Si       4     0.771000    0.853000    0.123000 1
C      C        4     0.860000    0.749000    0.162000 1
O      O        4     0.723000    0.856000   -0.013000 1
O      O        4     0.892000    0.933000    0.151000 1
Si     Si       4     0.917000    1.026000    0.215000 1
C      C        4     1.048000    1.012000    0.336000 1
O      O        4     0.999000    1.095000    0.125000 1
O      O        4     0.755000    1.078000    0.254000 1
Si     Si       4     0.561000    1.091000    0.274000 1
C      C        4     0.535000    1.117000    0.418000 1
O      O        4     0.502000    1.178000    0.197000 1
O      O        4     0.446000    1.008000    0.238000 1
H      H        4     0.217000    0.851000    0.075000 1
H      H        4     0.283000    0.967000    0.036000 1
H      H        4     0.409000    0.867000   -0.001000 1
H      H        4     0.429000    0.795000    0.310000 1
H      H        4     0.787000    0.716000    0.231000 1
H      H        4     0.862000    0.703000    0.084000 1
H      H        4     0.991000    0.761000    0.197000 1
H      H        4     0.817000    0.895000   -0.043000 1
H      H        4     0.984000    1.038000    0.414000 1
H      H        4     1.078000    0.937000    0.348000 1
H      H        4     1.166000    1.052000    0.325000 1
H      H        4     0.913000    1.145000    0.123000 1
H      H        4     0.445000    1.067000    0.456000 1
H      H        4     0.484000    1.188000    0.427000 1
H      H        4     0.658000    1.112000    0.468000 1
H      H        4     0.412000    1.153000    0.141000 1
#END

#############################################################
#             ______       _    _          _                #
#            (_____ \     \ \  / /        | |               #
#             _____) )   _ \ \/ / |_  ____| |               #
#            |  ____/ | | | )  (|  _)/ _  | |               #
#            | |    | |_| |/ /\ \ |_( (_| | |___            #
#            |_|     \__  /_/  \_\___)__|_|_____)           #
#                   (____/                                  #
#---------------------(version    0.6.2)--------------------#
#       A Python package for random crystal generation      #
#       url: https://github.com/qzhu2017/pyxtal             #
#       @Zhu's group at University of Nevada Las Vegas      #
#############################################################
data_32-SG-14
#Energy: -291.653535 eV/cell

_symmetry_space_group_name_H-M 'P21/c'
_symmetry_Int_Tables_number                   14
_symmetry_cell_setting                monoclinic
_cell_length_a            8.141372
_cell_length_b            9.838073
_cell_length_c           15.009572
_cell_angle_alpha        90.000000
_cell_angle_beta        100.181790
_cell_angle_gamma        90.000000
_cell_volume           1183.265450

loop_
 _symmetry_equiv_pos_site_id
 _symmetry_equiv_pos_as_xyz
1 'x, y, z'
2 '-x, y+1/2, -z+1/2'
3 '-x, -y, -z'
4 'x, -y+1/2, z+1/2'

loop_
 _atom_site_label
 _atom_site_type_symbol
 _atom_site_symmetry_multiplicity
 _atom_site_fract_x
 _atom_site_fract_y
 _atom_site_fract_z
 _atom_site_occupancy
C      C        4     0.704000    0.312000    0.268000 1
Si     Si       4     0.570000    0.237000    0.186000 1
O      O        4     0.582000    0.079000    0.193000 1
O      O        4     0.391000    0.278000    0.190000 1
Si     Si       4     0.236000    0.335000    0.131000 1
C      C        4     0.072000    0.233000    0.132000 1
O      O        4     0.205000    0.481000    0.164000 1
O      O        4     0.285000    0.354000    0.039000 1
Si     Si       4     0.283000    0.324000   -0.061000 1
C      C        4     0.146000    0.209000   -0.110000 1
O      O        4     0.252000    0.462000   -0.110000 1
O      O        4     0.462000    0.283000   -0.064000 1
Si     Si       4     0.626000    0.251000   -0.001000 1
C      C        4     0.686000    0.090000   -0.011000 1
O      O        4     0.760000    0.352000   -0.023000 1
O      O        4     0.598000    0.284000    0.094000 1
H      H        4     0.633000    0.375000    0.308000 1
H      H        4     0.775000    0.237000    0.312000 1
H      H        4     0.791000    0.377000    0.240000 1
H      H        4     0.668000    0.058000    0.246000 1
H      H        4     0.022000    0.195000    0.065000 1
H      H        4    -0.025000    0.290000    0.157000 1
H      H        4     0.110000    0.146000    0.176000 1
H      H        4     0.216000    0.535000    0.111000 1
H      H        4     0.074000    0.165000   -0.063000 1
H      H        4     0.061000    0.257000   -0.165000 1
H      H        4     0.212000    0.128000   -0.138000 1
H      H        4     0.357000    0.475000   -0.130000 1
H      H        4     0.594000    0.037000   -0.061000 1
H      H        4     0.696000    0.038000    0.053000 1
H      H        4     0.806000    0.087000   -0.033000 1
H      H        4     0.775000    0.408000    0.033000 1
#END

#############################################################
#             ______       _    _          _                #
#            (_____ \     \ \  / /        | |               #
#             _____) )   _ \ \/ / |_  ____| |               #
#            |  ____/ | | | )  (|  _)/ _  | |               #
#            | |    | |_| |/ /\ \ |_( (_| | |___            #
#            |_|     \__  /_/  \_\___)__|_|_____)           #
#                   (____/                                  #
#---------------------(version    0.6.2)--------------------#
#       A Python package for random crystal generation      #
#       url: https://github.com/qzhu2017/pyxtal             #
#       @Zhu's group at University of Nevada Las Vegas      #
#############################################################
data_33-SG-14
#Energy: -291.637 eV/cell

_symmetry_space_group_name_H-M 'P 1 21/n 1'
_symmetry_Int_Tables_number                   14
_symmetry_cell_setting                monoclinic
_cell_length_a           10.313444
_cell_length_b           10.028432
_cell_length_c           11.628136
_cell_angle_alpha        90.000000
_cell_angle_beta         85.741635
_cell_angle_gamma        90.000000
_cell_volume           1199.350886

loop_
 _symmetry_equiv_pos_site_id
 _symmetry_equiv_pos_as_xyz
1 'x, y, z'
2 '-x-1/2, y+1/2, -z-1/2'
3 '-x, -y, -z'
4 'x-1/2, -y+1/2, z-1/2'

loop_
 _atom_site_label
 _atom_site_type_symbol
 _atom_site_symmetry_multiplicity
 _atom_site_fract_x
 _atom_site_fract_y
 _atom_site_fract_z
 _atom_site_occupancy
C      C        4     0.634000    0.182000    0.163000 1
Si     Si       4     0.781000    0.253000    0.155000 1
O      O        4     0.771000    0.408000    0.158000 1
O      O        4     0.860000    0.209000    0.047000 1
Si     Si       4     0.941000    0.245000   -0.063000 1
C      C        4     0.920000    0.402000   -0.104000 1
O      O        4     0.903000    0.145000   -0.156000 1
O      O        4     1.082000    0.216000   -0.038000 1
Si     Si       4     1.162000    0.174000    0.060000 1
C      C        4     1.269000    0.292000    0.089000 1
O      O        4     1.232000    0.043000    0.025000 1
O      O        4     1.061000    0.138000    0.157000 1
Si     Si       4     0.991000    0.150000    0.275000 1
C      C        4     1.068000    0.242000    0.370000 1
O      O        4     0.970000    0.005000    0.320000 1
O      O        4     0.860000    0.209000    0.254000 1
H      H        4     0.623000    0.122000    0.086000 1
H      H        4     0.626000    0.117000    0.238000 1
H      H        4     0.558000    0.257000    0.170000 1
H      H        4     0.678000    0.431000    0.164000 1
H      H        4     0.885000    0.404000   -0.190000 1
H      H        4     0.849000    0.451000   -0.045000 1
H      H        4     1.012000    0.456000   -0.105000 1
H      H        4     0.840000    0.089000   -0.110000 1
H      H        4     1.265000    0.373000    0.027000 1
H      H        4     1.251000    0.332000    0.175000 1
H      H        4     1.367000    0.250000    0.080000 1
H      H        4     1.205000    0.032000   -0.053000 1
H      H        4     1.007000    0.327000    0.397000 1
H      H        4     1.085000    0.180000    0.444000 1
H      H        4     1.160000    0.279000    0.332000 1
H      H        4     1.019000   -0.046000    0.258000 1
#END

#############################################################
#             ______       _    _          _                #
#            (_____ \     \ \  / /        | |               #
#             _____) )   _ \ \/ / |_  ____| |               #
#            |  ____/ | | | )  (|  _)/ _  | |               #
#            | |    | |_| |/ /\ \ |_( (_| | |___            #
#            |_|     \__  /_/  \_\___)__|_|_____)           #
#                   (____/                                  #
#---------------------(version    0.6.2)--------------------#
#       A Python package for random crystal generation      #
#       url: https://github.com/qzhu2017/pyxtal             #
#       @Zhu's group at University of Nevada Las Vegas      #
#############################################################
data_34-SG-14
#Energy: -291.62561 eV/cell

_symmetry_space_group_name_H-M 'P21/c'
_symmetry_Int_Tables_number                   14
_symmetry_cell_setting                monoclinic
_cell_length_a            8.122514
_cell_length_b           14.303519
_cell_length_c           10.774838
_cell_angle_alpha        90.000000
_cell_angle_beta         97.136275
_cell_angle_gamma        90.000000
_cell_volume           1242.129133

loop_
 _symmetry_equiv_pos_site_id
 _symmetry_equiv_pos_as_xyz
1 'x, y, z'
2 '-x, y+1/2, -z+1/2'
3 '-x, -y, -z'
4 'x, -y+1/2, z+1/2'

loop_
 _atom_site_label
 _atom_site_type_symbol
 _atom_site_symmetry_multiplicity
 _atom_site_fract_x
 _atom_site_fract_y
 _atom_site_fract_z
 _atom_site_occupancy
C      C        4     0.410000    0.792000    0.929000 1
Si     Si       4     0.478000    0.733000    0.812000 1
O      O        4     0.463000    0.794000    0.693000 1
O      O        4     0.385000    0.643000    0.781000 1
Si     Si       4     0.399000    0.538000    0.764000 1
C      C        4     0.320000    0.510000    0.618000 1
O      O        4     0.292000    0.490000    0.855000 1
O      O        4     0.575000    0.495000    0.791000 1
Si     Si       4     0.760000    0.494000    0.842000 1
C      C        4     0.881000    0.478000    0.729000 1
O      O        4     0.775000    0.410000    0.933000 1
O      O        4     0.822000    0.580000    0.917000 1
Si     Si       4     0.790000    0.680000    0.941000 1
C      C        4     0.956000    0.747000    0.928000 1
O      O        4     0.731000    0.686000    1.072000 1
O      O        4     0.653000    0.703000    0.840000 1
H      H        4     0.310000    0.754000    0.964000 1
H      H        4     0.366000    0.859000    0.894000 1
H      H        4     0.510000    0.803000    1.005000 1
H      H        4     0.577000    0.794000    0.670000 1
H      H        4     0.212000    0.465000    0.620000 1
H      H        4     0.281000    0.574000    0.568000 1
H      H        4     0.412000    0.474000    0.571000 1
H      H        4     0.254000    0.542000    0.903000 1
H      H        4     0.806000    0.478000    0.638000 1
H      H        4     0.945000    0.411000    0.744000 1
H      H        4     0.972000    0.534000    0.731000 1
H      H        4     0.668000    0.379000    0.908000 1
H      H        4     0.926000    0.797000    0.853000 1
H      H        4     1.057000    0.702000    0.906000 1
H      H        4     0.993000    0.784000    1.016000 1
H      H        4     0.740000    0.619000    1.097000 1
#END

#############################################################
#             ______       _    _          _                #
#            (_____ \     \ \  / /        | |               #
#             _____) )   _ \ \/ / |_  ____| |               #
#            |  ____/ | | | )  (|  _)/ _  | |               #
#            | |    | |_| |/ /\ \ |_( (_| | |___            #
#            |_|     \__  /_/  \_\___)__|_|_____)           #
#                   (____/                                  #
#---------------------(version    0.6.2)--------------------#
#       A Python package for random crystal generation      #
#       url: https://github.com/qzhu2017/pyxtal             #
#       @Zhu's group at University of Nevada Las Vegas      #
#############################################################
data_35-SG-14
#Energy: -291.60766 eV/cell

_symmetry_space_group_name_H-M 'P21/c'
_symmetry_Int_Tables_number                   14
_symmetry_cell_setting                monoclinic
_cell_length_a            7.931285
_cell_length_b           10.105907
_cell_length_c           15.500074
_cell_angle_alpha        90.000000
_cell_angle_beta        104.414192
_cell_angle_gamma        90.000000
_cell_volume           1203.266720

loop_
 _symmetry_equiv_pos_site_id
 _symmetry_equiv_pos_as_xyz
1 'x, y, z'
2 '-x, y+1/2, -z+1/2'
3 '-x, -y, -z'
4 'x, -y+1/2, z+1/2'

loop_
 _atom_site_label
 _atom_site_type_symbol
 _atom_site_symmetry_multiplicity
 _atom_site_fract_x
 _atom_site_fract_y
 _atom_site_fract_z
 _atom_site_occupancy
C      C        4     0.869000    0.850000    0.266000 1
Si     Si       4     0.727000    0.730000    0.271000 1
O      O        4     0.785000    0.596000    0.240000 1
O      O        4     0.691000    0.710000    0.359000 1
Si     Si       4     0.713000    0.758000    0.453000 1
C      C        4     0.785000    0.635000    0.526000 1
O      O        4     0.835000    0.878000    0.473000 1
O      O        4     0.534000    0.801000    0.455000 1
Si     Si       4     0.348000    0.824000    0.400000 1
C      C        4     0.217000    0.716000    0.433000 1
O      O        4     0.296000    0.968000    0.419000 1
O      O        4     0.317000    0.812000    0.299000 1
Si     Si       4     0.361000    0.786000    0.209000 1
C      C        4     0.239000    0.661000    0.158000 1
O      O        4     0.315000    0.915000    0.155000 1
O      O        4     0.550000    0.761000    0.212000 1
H      H        4     0.805000    0.927000    0.220000 1
H      H        4     0.976000    0.809000    0.242000 1
H      H        4     0.922000    0.895000    0.331000 1
H      H        4     0.778000    0.538000    0.290000 1
H      H        4     0.687000    0.612000    0.562000 1
H      H        4     0.812000    0.548000    0.490000 1
H      H        4     0.905000    0.666000    0.573000 1
H      H        4     0.767000    0.943000    0.497000 1
H      H        4     0.149000    0.656000    0.376000 1
H      H        4     0.122000    0.770000    0.459000 1
H      H        4     0.295000    0.652000    0.484000 1
H      H        4     0.264000    1.007000    0.358000 1
H      H        4     0.162000    0.622000    0.201000 1
H      H        4     0.150000    0.696000    0.097000 1
H      H        4     0.322000    0.584000    0.142000 1
H      H        4     0.426000    0.935000    0.142000 1
#END

#############################################################
#             ______       _    _          _                #
#            (_____ \     \ \  / /        | |               #
#             _____) )   _ \ \/ / |_  ____| |               #
#            |  ____/ | | | )  (|  _)/ _  | |               #
#            | |    | |_| |/ /\ \ |_( (_| | |___            #
#            |_|     \__  /_/  \_\___)__|_|_____)           #
#                   (____/                                  #
#---------------------(version    0.6.2)--------------------#
#       A Python package for random crystal generation      #
#       url: https://github.com/qzhu2017/pyxtal             #
#       @Zhu's group at University of Nevada Las Vegas      #
#############################################################
data_36-SG-14
#Energy: -291.598085 eV/cell

_symmetry_space_group_name_H-M 'P21/c'
_symmetry_Int_Tables_number                   14
_symmetry_cell_setting                monoclinic
_cell_length_a            7.756076
_cell_length_b           13.629060
_cell_length_c           11.095626
_cell_angle_alpha        90.000000
_cell_angle_beta         92.372911
_cell_angle_gamma        90.000000
_cell_volume           1171.890973

loop_
 _symmetry_equiv_pos_site_id
 _symmetry_equiv_pos_as_xyz
1 'x, y, z'
2 '-x, y+1/2, -z+1/2'
3 '-x, -y, -z'
4 'x, -y+1/2, z+1/2'

loop_
 _atom_site_label
 _atom_site_type_symbol
 _atom_site_symmetry_multiplicity
 _atom_site_fract_x
 _atom_site_fract_y
 _atom_site_fract_z
 _atom_site_occupancy
C      C        4     0.748000    0.769000    0.574000 1
Si     Si       4     0.757000    0.743000    0.427000 1
O      O        4     0.673000    0.826000    0.350000 1
O      O        4     0.667000    0.648000    0.396000 1
Si     Si       4     0.682000    0.547000    0.342000 1
C      C        4     0.532000    0.533000    0.231000 1
O      O        4     0.649000    0.474000    0.445000 1
O      O        4     0.860000    0.518000    0.296000 1
Si     Si       4     1.053000    0.530000    0.278000 1
C      C        4     1.090000    0.547000    0.133000 1
O      O        4     1.128000    0.430000    0.322000 1
O      O        4     1.144000    0.610000    0.352000 1
Si     Si       4     1.118000    0.704000    0.418000 1
C      C        4     1.249000    0.793000    0.376000 1
O      O        4     1.140000    0.681000    0.555000 1
O      O        4     0.934000    0.728000    0.385000 1
H      H        4     0.672000    0.713000    0.617000 1
H      H        4     0.685000    0.840000    0.583000 1
H      H        4     0.876000    0.772000    0.617000 1
H      H        4     0.761000    0.845000    0.295000 1
H      H        4     0.442000    0.477000    0.257000 1
H      H        4     0.462000    0.602000    0.216000 1
H      H        4     0.592000    0.511000    0.148000 1
H      H        4     0.632000    0.519000    0.511000 1
H      H        4     0.967000    0.553000    0.082000 1
H      H        4     1.164000    0.486000    0.099000 1
H      H        4     1.164000    0.614000    0.122000 1
H      H        4     1.024000    0.397000    0.348000 1
H      H        4     1.174000    0.854000    0.337000 1
H      H        4     1.335000    0.765000    0.308000 1
H      H        4     1.327000    0.820000    0.453000 1
H      H        4     1.205000    0.619000    0.552000 1
#END

#############################################################
#             ______       _    _          _                #
#            (_____ \     \ \  / /        | |               #
#             _____) )   _ \ \/ / |_  ____| |               #
#            |  ____/ | | | )  (|  _)/ _  | |               #
#            | |    | |_| |/ /\ \ |_( (_| | |___            #
#            |_|     \__  /_/  \_\___)__|_|_____)           #
#                   (____/                                  #
#---------------------(version    0.6.2)--------------------#
#       A Python package for random crystal generation      #
#       url: https://github.com/qzhu2017/pyxtal             #
#       @Zhu's group at University of Nevada Las Vegas      #
#############################################################
data_37-SG-14
#Energy: -291.5980825 eV/cell

_symmetry_space_group_name_H-M 'P 1 21/n 1'
_symmetry_Int_Tables_number                   14
_symmetry_cell_setting                monoclinic
_cell_length_a            8.206926
_cell_length_b           15.219717
_cell_length_c            9.734411
_cell_angle_alpha        90.000000
_cell_angle_beta         88.507169
_cell_angle_gamma        90.000000
_cell_volume           1215.484278

loop_
 _symmetry_equiv_pos_site_id
 _symmetry_equiv_pos_as_xyz
1 'x, y, z'
2 '-x-1/2, y+1/2, -z-1/2'
3 '-x, -y, -z'
4 'x-1/2, -y+1/2, z-1/2'

loop_
 _atom_site_label
 _atom_site_type_symbol
 _atom_site_symmetry_multiplicity
 _atom_site_fract_x
 _atom_site_fract_y
 _atom_site_fract_z
 _atom_site_occupancy
C      C        4     0.417000    0.777000    0.151000 1
Si     Si       4     0.255000    0.742000    0.244000 1
O      O        4     0.297000    0.727000    0.396000 1
O      O        4     0.182000    0.662000    0.181000 1
Si     Si       4     0.124000    0.570000    0.199000 1
C      C        4     0.178000    0.522000    0.344000 1
O      O        4     0.188000    0.518000    0.072000 1
O      O        4    -0.058000    0.579000    0.191000 1
Si     Si       4    -0.202000    0.641000    0.187000 1
C      C        4    -0.335000    0.615000    0.314000 1
O      O        4    -0.284000    0.628000    0.047000 1
O      O        4    -0.164000    0.740000    0.197000 1
Si     Si       4    -0.060000    0.822000    0.216000 1
C      C        4    -0.144000    0.880000    0.346000 1
O      O        4    -0.068000    0.876000    0.083000 1
O      O        4     0.119000    0.807000    0.244000 1
H      H        4     0.392000    0.842000    0.108000 1
H      H        4     0.444000    0.732000    0.068000 1
H      H        4     0.522000    0.782000    0.217000 1
H      H        4     0.236000    0.774000    0.443000 1
H      H        4     0.069000    0.504000    0.404000 1
H      H        4     0.250000    0.464000    0.320000 1
H      H        4     0.251000    0.566000    0.405000 1
H      H        4     0.249000    0.563000    0.023000 1
H      H        4    -0.450000    0.594000    0.271000 1
H      H        4    -0.357000    0.672000    0.379000 1
H      H        4    -0.287000    0.562000    0.376000 1
H      H        4    -0.222000    0.578000    0.006000 1
H      H        4    -0.247000    0.843000    0.390000 1
H      H        4    -0.188000    0.943000    0.307000 1
H      H        4    -0.055000    0.892000    0.424000 1
H      H        4    -0.126000    0.837000    0.021000 1
#END

#############################################################
#             ______       _    _          _                #
#            (_____ \     \ \  / /        | |               #
#             _____) )   _ \ \/ / |_  ____| |               #
#            |  ____/ | | | )  (|  _)/ _  | |               #
#            | |    | |_| |/ /\ \ |_( (_| | |___            #
#            |_|     \__  /_/  \_\___)__|_|_____)           #
#                   (____/                                  #
#---------------------(version    0.6.2)--------------------#
#       A Python package for random crystal generation      #
#       url: https://github.com/qzhu2017/pyxtal             #
#       @Zhu's group at University of Nevada Las Vegas      #
#############################################################
data_38-SG-14
#Energy: -291.5951725 eV/cell

_symmetry_space_group_name_H-M 'P21/c'
_symmetry_Int_Tables_number                   14
_symmetry_cell_setting                monoclinic
_cell_length_a            8.543562
_cell_length_b           12.688269
_cell_length_c           11.921882
_cell_angle_alpha        90.000000
_cell_angle_beta        103.918015
_cell_angle_gamma        90.000000
_cell_volume           1254.425170

loop_
 _symmetry_equiv_pos_site_id
 _symmetry_equiv_pos_as_xyz
1 'x, y, z'
2 '-x, y+1/2, -z+1/2'
3 '-x, -y, -z'
4 'x, -y+1/2, z+1/2'

loop_
 _atom_site_label
 _atom_site_type_symbol
 _atom_site_symmetry_multiplicity
 _atom_site_fract_x
 _atom_site_fract_y
 _atom_site_fract_z
 _atom_site_occupancy
C      C        4    -0.231000    0.180000    0.425000 1
Si     Si       4    -0.080000    0.176000    0.359000 1
O      O        4    -0.103000    0.259000    0.262000 1
O      O        4    -0.063000    0.069000    0.312000 1
Si     Si       4    -0.053000    0.007000    0.209000 1
C      C        4    -0.128000    0.068000    0.083000 1
O      O        4    -0.137000   -0.101000    0.214000 1
O      O        4     0.124000   -0.015000    0.227000 1
Si     Si       4     0.292000    0.001000    0.303000 1
C      C        4     0.415000    0.044000    0.223000 1
O      O        4     0.348000   -0.111000    0.349000 1
O      O        4     0.308000    0.074000    0.409000 1
Si     Si       4     0.251000    0.156000    0.485000 1
C      C        4     0.375000    0.259000    0.504000 1
O      O        4     0.261000    0.100000    0.603000 1
O      O        4     0.079000    0.195000    0.442000 1
H      H        4    -0.294000    0.105000    0.417000 1
H      H        4    -0.316000    0.242000    0.385000 1
H      H        4    -0.183000    0.198000    0.516000 1
H      H        4    -0.005000    0.303000    0.285000 1
H      H        4    -0.221000    0.019000    0.030000 1
H      H        4    -0.181000    0.143000    0.096000 1
H      H        4    -0.032000    0.082000    0.038000 1
H      H        4    -0.180000   -0.095000    0.283000 1
H      H        4     0.345000    0.058000    0.135000 1
H      H        4     0.508000   -0.014000    0.221000 1
H      H        4     0.471000    0.118000    0.259000 1
H      H        4     0.254000   -0.154000    0.314000 1
H      H        4     0.307000    0.331000    0.477000 1
H      H        4     0.463000    0.249000    0.453000 1
H      H        4     0.438000    0.265000    0.595000 1
H      H        4     0.304000    0.033000    0.584000 1
#END

#############################################################
#             ______       _    _          _                #
#            (_____ \     \ \  / /        | |               #
#             _____) )   _ \ \/ / |_  ____| |               #
#            |  ____/ | | | )  (|  _)/ _  | |               #
#            | |    | |_| |/ /\ \ |_( (_| | |___            #
#            |_|     \__  /_/  \_\___)__|_|_____)           #
#                   (____/                                  #
#---------------------(version    0.6.2)--------------------#
#       A Python package for random crystal generation      #
#       url: https://github.com/qzhu2017/pyxtal             #
#       @Zhu's group at University of Nevada Las Vegas      #
#############################################################
data_39-SG-14
#Energy: -291.58899 eV/cell

_symmetry_space_group_name_H-M 'P 1 21/n 1'
_symmetry_Int_Tables_number                   14
_symmetry_cell_setting                monoclinic
_cell_length_a            7.694301
_cell_length_b           10.174003
_cell_length_c           15.354247
_cell_angle_alpha        90.000000
_cell_angle_beta         86.477654
_cell_angle_gamma        90.000000
_cell_volume           1199.688125

loop_
 _symmetry_equiv_pos_site_id
 _symmetry_equiv_pos_as_xyz
1 'x, y, z'
2 '-x-1/2, y+1/2, -z-1/2'
3 '-x, -y, -z'
4 'x-1/2, -y+1/2, z-1/2'

loop_
 _atom_site_label
 _atom_site_type_symbol
 _atom_site_symmetry_multiplicity
 _atom_site_fract_x
 _atom_site_fract_y
 _atom_site_fract_z
 _atom_site_occupancy
C      C        4     0.990000    0.181000    0.540000 1
Si     Si       4     0.817000    0.266000    0.513000 1
O      O        4     0.793000    0.262000    0.413000 1
O      O        4     0.648000    0.221000    0.560000 1
Si     Si       4     0.552000    0.137000    0.629000 1
C      C        4     0.389000    0.056000    0.587000 1
O      O        4     0.678000    0.044000    0.674000 1
O      O        4     0.479000    0.233000    0.697000 1
Si     Si       4     0.488000    0.377000    0.721000 1
C      C        4     0.303000    0.450000    0.696000 1
O      O        4     0.520000    0.390000    0.820000 1
O      O        4     0.653000    0.426000    0.672000 1
Si     Si       4     0.755000    0.509000    0.604000 1
C      C        4     0.644000    0.625000    0.555000 1
O      O        4     0.905000    0.571000    0.653000 1
O      O        4     0.836000    0.411000    0.539000 1
H      H        4     0.952000    0.103000    0.586000 1
H      H        4     1.054000    0.136000    0.482000 1
H      H        4     1.081000    0.246000    0.569000 1
H      H        4     0.889000    0.207000    0.388000 1
H      H        4     0.385000    0.077000    0.517000 1
H      H        4     0.266000    0.086000    0.619000 1
H      H        4     0.406000   -0.050000    0.596000 1
H      H        4     0.652000    0.069000    0.735000 1
H      H        4     0.215000    0.377000    0.671000 1
H      H        4     0.240000    0.494000    0.754000 1
H      H        4     0.325000    0.526000    0.648000 1
H      H        4     0.634000    0.434000    0.818000 1
H      H        4     0.651000    0.607000    0.485000 1
H      H        4     0.509000    0.628000    0.578000 1
H      H        4     0.702000    0.721000    0.567000 1
H      H        4     1.008000    0.537000    0.621000 1
#END

#############################################################
#             ______       _    _          _                #
#            (_____ \     \ \  / /        | |               #
#             _____) )   _ \ \/ / |_  ____| |               #
#            |  ____/ | | | )  (|  _)/ _  | |               #
#            | |    | |_| |/ /\ \ |_( (_| | |___            #
#            |_|     \__  /_/  \_\___)__|_|_____)           #
#                   (____/                                  #
#---------------------(version    0.6.2)--------------------#
#       A Python package for random crystal generation      #
#       url: https://github.com/qzhu2017/pyxtal             #
#       @Zhu's group at University of Nevada Las Vegas      #
#############################################################
data_40-SG-14
#Energy: -291.54683 eV/cell

_symmetry_space_group_name_H-M 'P21/c'
_symmetry_Int_Tables_number                   14
_symmetry_cell_setting                monoclinic
_cell_length_a            7.873975
_cell_length_b            8.477729
_cell_length_c           17.582631
_cell_angle_alpha        90.000000
_cell_angle_beta         90.544232
_cell_angle_gamma        90.000000
_cell_volume           1173.647913

loop_
 _symmetry_equiv_pos_site_id
 _symmetry_equiv_pos_as_xyz
1 'x, y, z'
2 '-x, y+1/2, -z+1/2'
3 '-x, -y, -z'
4 'x, -y+1/2, z+1/2'

loop_
 _atom_site_label
 _atom_site_type_symbol
 _atom_site_symmetry_multiplicity
 _atom_site_fract_x
 _atom_site_fract_y
 _atom_site_fract_z
 _atom_site_occupancy
C      C        4     0.634000    0.413000    0.666000 1
Si     Si       4     0.701000    0.278000    0.729000 1
O      O        4     0.641000    0.111000    0.705000 1
O      O        4     0.634000    0.310000    0.807000 1
Si     Si       4     0.675000    0.353000    0.890000 1
C      C        4     0.619000    0.206000    0.948000 1
O      O        4     0.569000    0.502000    0.907000 1
O      O        4     0.862000    0.396000    0.907000 1
Si     Si       4     1.049000    0.425000    0.891000 1
C      C        4     1.171000    0.306000    0.944000 1
O      O        4     1.075000    0.599000    0.915000 1
O      O        4     1.101000    0.419000    0.808000 1
Si     Si       4     1.055000    0.363000    0.730000 1
C      C        4     1.210000    0.250000    0.696000 1
O      O        4     1.027000    0.512000    0.680000 1
O      O        4     0.891000    0.275000    0.741000 1
H      H        4     0.561000    0.354000    0.621000 1
H      H        4     0.552000    0.498000    0.695000 1
H      H        4     0.738000    0.475000    0.640000 1
H      H        4     0.747000    0.054000    0.696000 1
H      H        4     0.572000    0.106000    0.915000 1
H      H        4     0.519000    0.246000    0.986000 1
H      H        4     0.728000    0.169000    0.982000 1
H      H        4     0.508000    0.524000    0.859000 1
H      H        4     1.093000    0.222000    0.975000 1
H      H        4     1.256000    0.240000    0.906000 1
H      H        4     1.247000    0.375000    0.984000 1
H      H        4     0.962000    0.625000    0.932000 1
H      H        4     1.164000    0.131000    0.687000 1
H      H        4     1.314000    0.246000    0.737000 1
H      H        4     1.256000    0.299000    0.642000 1
H      H        4     1.059000    0.599000    0.714000 1
#END

#############################################################
#             ______       _    _          _                #
#            (_____ \     \ \  / /        | |               #
#             _____) )   _ \ \/ / |_  ____| |               #
#            |  ____/ | | | )  (|  _)/ _  | |               #
#            | |    | |_| |/ /\ \ |_( (_| | |___            #
#            |_|     \__  /_/  \_\___)__|_|_____)           #
#                   (____/                                  #
#---------------------(version    0.6.2)--------------------#
#       A Python package for random crystal generation      #
#       url: https://github.com/qzhu2017/pyxtal             #
#       @Zhu's group at University of Nevada Las Vegas      #
#############################################################
data_41-SG-14
#Energy: -291.5302275 eV/cell

_symmetry_space_group_name_H-M 'P21/c'
_symmetry_Int_Tables_number                   14
_symmetry_cell_setting                monoclinic
_cell_length_a            6.093700
_cell_length_b           14.717588
_cell_length_c           13.079744
_cell_angle_alpha        90.000000
_cell_angle_beta         98.357891
_cell_angle_gamma        90.000000
_cell_volume           1160.592690

loop_
 _symmetry_equiv_pos_site_id
 _symmetry_equiv_pos_as_xyz
1 'x, y, z'
2 '-x, y+1/2, -z+1/2'
3 '-x, -y, -z'
4 'x, -y+1/2, z+1/2'

loop_
 _atom_site_label
 _atom_site_type_symbol
 _atom_site_symmetry_multiplicity
 _atom_site_fract_x
 _atom_site_fract_y
 _atom_site_fract_z
 _atom_site_occupancy
C      C        4    -0.309000    0.760000    0.760000 1
Si     Si       4    -0.049000    0.739000    0.740000 1
O      O        4    -0.004000    0.780000    0.636000 1
O      O        4    -0.007000    0.638000    0.735000 1
Si     Si       4     0.131000    0.564000    0.793000 1
C      C        4     0.330000    0.530000    0.727000 1
O      O        4    -0.028000    0.485000    0.807000 1
O      O        4     0.206000    0.605000    0.900000 1
Si     Si       4     0.380000    0.641000    0.986000 1
C      C        4     0.644000    0.624000    0.970000 1
O      O        4     0.332000    0.597000    1.087000 1
O      O        4     0.326000    0.742000    0.991000 1
Si     Si       4     0.193000    0.815000    0.929000 1
C      C        4     0.342000    0.910000    0.923000 1
O      O        4    -0.018000    0.834000    0.978000 1
O      O        4     0.129000    0.775000    0.822000 1
H      H        4    -0.398000    0.697000    0.765000 1
H      H        4    -0.394000    0.800000    0.696000 1
H      H        4    -0.310000    0.799000    0.832000 1
H      H        4     0.118000    0.822000    0.657000 1
H      H        4     0.304000    0.458000    0.708000 1
H      H        4     0.319000    0.569000    0.655000 1
H      H        4     0.494000    0.538000    0.769000 1
H      H        4    -0.165000    0.508000    0.768000 1
H      H        4     0.661000    0.587000    0.901000 1
H      H        4     0.727000    0.586000    1.036000 1
H      H        4     0.725000    0.690000    0.967000 1
H      H        4     0.201000    0.560000    1.065000 1
H      H        4     0.260000    0.967000    0.955000 1
H      H        4     0.507000    0.901000    0.967000 1
H      H        4     0.356000    0.924000    0.842000 1
H      H        4    -0.000000    0.792000    1.038000 1
#END

#############################################################
#             ______       _    _          _                #
#            (_____ \     \ \  / /        | |               #
#             _____) )   _ \ \/ / |_  ____| |               #
#            |  ____/ | | | )  (|  _)/ _  | |               #
#            | |    | |_| |/ /\ \ |_( (_| | |___            #
#            |_|     \__  /_/  \_\___)__|_|_____)           #
#                   (____/                                  #
#---------------------(version    0.6.2)--------------------#
#       A Python package for random crystal generation      #
#       url: https://github.com/qzhu2017/pyxtal             #
#       @Zhu's group at University of Nevada Las Vegas      #
#############################################################
data_42-SG-14
#Energy: -291.5300575 eV/cell

_symmetry_space_group_name_H-M 'P21/c'
_symmetry_Int_Tables_number                   14
_symmetry_cell_setting                monoclinic
_cell_length_a            8.649960
_cell_length_b           13.470445
_cell_length_c            9.963446
_cell_angle_alpha        90.000000
_cell_angle_beta        102.436657
_cell_angle_gamma        90.000000
_cell_volume           1133.687324

loop_
 _symmetry_equiv_pos_site_id
 _symmetry_equiv_pos_as_xyz
1 'x, y, z'
2 '-x, y+1/2, -z+1/2'
3 '-x, -y, -z'
4 'x, -y+1/2, z+1/2'

loop_
 _atom_site_label
 _atom_site_type_symbol
 _atom_site_symmetry_multiplicity
 _atom_site_fract_x
 _atom_site_fract_y
 _atom_site_fract_z
 _atom_site_occupancy
C      C        4     0.654000    0.392000    0.126000 1
Si     Si       4     0.531000    0.390000    0.234000 1
O      O        4     0.579000    0.308000    0.345000 1
O      O        4     0.362000    0.369000    0.158000 1
Si     Si       4     0.200000    0.416000    0.124000 1
C      C        4     0.076000    0.356000    0.204000 1
O      O        4     0.137000    0.409000   -0.034000 1
O      O        4     0.228000    0.525000    0.161000 1
Si     Si       4     0.221000    0.616000    0.250000 1
C      C        4     0.123000    0.603000    0.377000 1
O      O        4     0.150000    0.701000    0.152000 1
O      O        4     0.393000    0.644000    0.303000 1
Si     Si       4     0.557000    0.598000    0.318000 1
C      C        4     0.679000    0.629000    0.466000 1
O      O        4     0.625000    0.636000    0.195000 1
O      O        4     0.526000    0.487000    0.308000 1
H      H        4     0.588000    0.378000    0.021000 1
H      H        4     0.742000    0.334000    0.154000 1
H      H        4     0.713000    0.463000    0.130000 1
H      H        4     0.676000    0.278000    0.326000 1
H      H        4    -0.019000    0.325000    0.125000 1
H      H        4     0.025000    0.404000    0.269000 1
H      H        4     0.140000    0.295000    0.265000 1
H      H        4     0.225000    0.379000   -0.066000 1
H      H        4     0.073000    0.530000    0.380000 1
H      H        4     0.026000    0.657000    0.362000 1
H      H        4     0.203000    0.618000    0.475000 1
H      H        4     0.111000    0.663000    0.069000 1
H      H        4     0.621000    0.680000    0.523000 1
H      H        4     0.712000    0.562000    0.527000 1
H      H        4     0.785000    0.664000    0.446000 1
H      H        4     0.546000    0.687000    0.158000 1
#END

#############################################################
#             ______       _    _          _                #
#            (_____ \     \ \  / /        | |               #
#             _____) )   _ \ \/ / |_  ____| |               #
#            |  ____/ | | | )  (|  _)/ _  | |               #
#            | |    | |_| |/ /\ \ |_( (_| | |___            #
#            |_|     \__  /_/  \_\___)__|_|_____)           #
#                   (____/                                  #
#---------------------(version    0.6.2)--------------------#
#       A Python package for random crystal generation      #
#       url: https://github.com/qzhu2017/pyxtal             #
#       @Zhu's group at University of Nevada Las Vegas      #
#############################################################
data_43-SG-14
#Energy: -291.51786 eV/cell

_symmetry_space_group_name_H-M 'P21/c'
_symmetry_Int_Tables_number                   14
_symmetry_cell_setting                monoclinic
_cell_length_a            7.969936
_cell_length_b           14.415515
_cell_length_c           10.892192
_cell_angle_alpha        90.000000
_cell_angle_beta        101.140533
_cell_angle_gamma        90.000000
_cell_volume           1227.830583

loop_
 _symmetry_equiv_pos_site_id
 _symmetry_equiv_pos_as_xyz
1 'x, y, z'
2 '-x, y+1/2, -z+1/2'
3 '-x, -y, -z'
4 'x, -y+1/2, z+1/2'

loop_
 _atom_site_label
 _atom_site_type_symbol
 _atom_site_symmetry_multiplicity
 _atom_site_fract_x
 _atom_site_fract_y
 _atom_site_fract_z
 _atom_site_occupancy
C      C        4     0.637000    0.713000    0.460000 1
Si     Si       4     0.553000    0.767000    0.327000 1
O      O        4     0.569000    0.705000    0.213000 1
O      O        4     0.369000    0.791000    0.316000 1
Si     Si       4     0.229000    0.812000    0.384000 1
C      C        4     0.061000    0.742000    0.343000 1
O      O        4     0.296000    0.813000    0.528000 1
O      O        4     0.185000    0.910000    0.346000 1
Si     Si       4     0.239000    0.994000    0.280000 1
C      C        4     0.123000    0.998000    0.136000 1
O      O        4     0.204000    1.081000    0.356000 1
O      O        4     0.430000    0.999000    0.276000 1
Si     Si       4     0.614000    0.962000    0.292000 1
C      C        4     0.689000    0.992000    0.165000 1
O      O        4     0.719000    1.013000    0.407000 1
O      O        4     0.638000    0.859000    0.314000 1
H      H        4     0.539000    0.701000    0.516000 1
H      H        4     0.688000    0.647000    0.438000 1
H      H        4     0.739000    0.755000    0.514000 1
H      H        4     0.452000    0.703000    0.165000 1
H      H        4     0.033000    0.708000    0.426000 1
H      H        4    -0.050000    0.782000    0.298000 1
H      H        4     0.090000    0.690000    0.277000 1
H      H        4     0.277000    0.879000    0.547000 1
H      H        4     0.040000    0.937000    0.119000 1
H      H        4     0.046000    1.060000    0.123000 1
H      H        4     0.208000    0.997000    0.068000 1
H      H        4     0.309000    1.116000    0.357000 1
H      H        4     0.589000    1.025000    0.097000 1
H      H        4     0.735000    0.930000    0.124000 1
H      H        4     0.795000    1.040000    0.192000 1
H      H        4     0.767000    0.963000    0.463000 1
#END

#############################################################
#             ______       _    _          _                #
#            (_____ \     \ \  / /        | |               #
#             _____) )   _ \ \/ / |_  ____| |               #
#            |  ____/ | | | )  (|  _)/ _  | |               #
#            | |    | |_| |/ /\ \ |_( (_| | |___            #
#            |_|     \__  /_/  \_\___)__|_|_____)           #
#                   (____/                                  #
#---------------------(version    0.6.2)--------------------#
#       A Python package for random crystal generation      #
#       url: https://github.com/qzhu2017/pyxtal             #
#       @Zhu's group at University of Nevada Las Vegas      #
#############################################################
data_44-SG-14
#Energy: -291.517585 eV/cell

_symmetry_space_group_name_H-M 'P 1 21/n 1'
_symmetry_Int_Tables_number                   14
_symmetry_cell_setting                monoclinic
_cell_length_a            9.682031
_cell_length_b            9.836132
_cell_length_c           12.633961
_cell_angle_alpha        90.000000
_cell_angle_beta         89.801271
_cell_angle_gamma        90.000000
_cell_volume           1203.172056

loop_
 _symmetry_equiv_pos_site_id
 _symmetry_equiv_pos_as_xyz
1 'x, y, z'
2 '-x-1/2, y+1/2, -z-1/2'
3 '-x, -y, -z'
4 'x-1/2, -y+1/2, z-1/2'

loop_
 _atom_site_label
 _atom_site_type_symbol
 _atom_site_symmetry_multiplicity
 _atom_site_fract_x
 _atom_site_fract_y
 _atom_site_fract_z
 _atom_site_occupancy
C      C        4     0.887000    0.369000    0.064000 1
Si     Si       4     0.772000    0.242000    0.068000 1
O      O        4     0.846000    0.104000    0.074000 1
O      O        4     0.676000    0.241000   -0.026000 1
Si     Si       4     0.527000    0.245000   -0.065000 1
C      C        4     0.490000    0.099000   -0.125000 1
O      O        4     0.517000    0.364000   -0.146000 1
O      O        4     0.415000    0.276000    0.019000 1
Si     Si       4     0.359000    0.311000    0.129000 1
C      C        4     0.248000    0.193000    0.172000 1
O      O        4     0.283000    0.446000    0.109000 1
O      O        4     0.465000    0.342000    0.213000 1
Si     Si       4     0.613000    0.333000    0.245000 1
C      C        4     0.631000    0.262000    0.364000 1
O      O        4     0.671000    0.480000    0.241000 1
O      O        4     0.675000    0.249000    0.159000 1
H      H        4     0.878000    0.425000   -0.010000 1
H      H        4     0.874000    0.439000    0.130000 1
H      H        4     0.991000    0.327000    0.067000 1
H      H        4     0.815000    0.068000    0.142000 1
H      H        4     0.400000    0.052000   -0.088000 1
H      H        4     0.468000    0.117000   -0.208000 1
H      H        4     0.577000    0.030000   -0.119000 1
H      H        4     0.611000    0.403000   -0.144000 1
H      H        4     0.242000    0.109000    0.116000 1
H      H        4     0.145000    0.238000    0.181000 1
H      H        4     0.281000    0.155000    0.249000 1
H      H        4     0.296000    0.452000    0.034000 1
H      H        4     0.528000    0.238000    0.395000 1
H      H        4     0.691000    0.169000    0.358000 1
H      H        4     0.682000    0.333000    0.418000 1
H      H        4     0.590000    0.532000    0.216000 1
#END

#############################################################
#             ______       _    _          _                #
#            (_____ \     \ \  / /        | |               #
#             _____) )   _ \ \/ / |_  ____| |               #
#            |  ____/ | | | )  (|  _)/ _  | |               #
#            | |    | |_| |/ /\ \ |_( (_| | |___            #
#            |_|     \__  /_/  \_\___)__|_|_____)           #
#                   (____/                                  #
#---------------------(version    0.6.2)--------------------#
#       A Python package for random crystal generation      #
#       url: https://github.com/qzhu2017/pyxtal             #
#       @Zhu's group at University of Nevada Las Vegas      #
#############################################################
data_45-SG-14
#Energy: -291.5021025 eV/cell

_symmetry_space_group_name_H-M 'P21/c'
_symmetry_Int_Tables_number                   14
_symmetry_cell_setting                monoclinic
_cell_length_a            7.971640
_cell_length_b           13.927718
_cell_length_c           10.512968
_cell_angle_alpha        90.000000
_cell_angle_beta         95.826032
_cell_angle_gamma        90.000000
_cell_volume           1161.191656

loop_
 _symmetry_equiv_pos_site_id
 _symmetry_equiv_pos_as_xyz
1 'x, y, z'
2 '-x, y+1/2, -z+1/2'
3 '-x, -y, -z'
4 'x, -y+1/2, z+1/2'

loop_
 _atom_site_label
 _atom_site_type_symbol
 _atom_site_symmetry_multiplicity
 _atom_site_fract_x
 _atom_site_fract_y
 _atom_site_fract_z
 _atom_site_occupancy
C      C        4    -0.124000    0.138000    0.935000 1
Si     Si       4    -0.052000    0.114000    0.794000 1
O      O        4    -0.111000    0.193000    0.696000 1
O      O        4    -0.107000    0.016000    0.743000 1
Si     Si       4    -0.050000   -0.082000    0.698000 1
C      C        4    -0.119000   -0.097000    0.544000 1
O      O        4    -0.131000   -0.162000    0.777000 1
O      O        4     0.140000   -0.103000    0.715000 1
Si     Si       4     0.327000   -0.085000    0.760000 1
C      C        4     0.441000   -0.075000    0.636000 1
O      O        4     0.382000   -0.173000    0.842000 1
O      O        4     0.364000    0.003000    0.845000 1
Si     Si       4     0.299000    0.098000    0.882000 1
C      C        4     0.434000    0.184000    0.852000 1
O      O        4     0.272000    0.091000    1.026000 1
O      O        4     0.135000    0.108000    0.801000 1
H      H        4    -0.204000    0.080000    0.961000 1
H      H        4    -0.198000    0.204000    0.926000 1
H      H        4    -0.021000    0.148000    1.009000 1
H      H        4    -0.005000    0.224000    0.683000 1
H      H        4    -0.207000   -0.158000    0.533000 1
H      H        4    -0.183000   -0.033000    0.507000 1
H      H        4    -0.012000   -0.112000    0.490000 1
H      H        4    -0.191000   -0.126000    0.840000 1
H      H        4     0.360000   -0.083000    0.546000 1
H      H        4     0.537000   -0.130000    0.641000 1
H      H        4     0.503000   -0.006000    0.638000 1
H      H        4     0.280000   -0.213000    0.835000 1
H      H        4     0.373000    0.232000    0.781000 1
H      H        4     0.543000    0.152000    0.814000 1
H      H        4     0.474000    0.222000    0.940000 1
H      H        4     0.327000    0.029000    1.046000 1
#END

#############################################################
#             ______       _    _          _                #
#            (_____ \     \ \  / /        | |               #
#             _____) )   _ \ \/ / |_  ____| |               #
#            |  ____/ | | | )  (|  _)/ _  | |               #
#            | |    | |_| |/ /\ \ |_( (_| | |___            #
#            |_|     \__  /_/  \_\___)__|_|_____)           #
#                   (____/                                  #
#---------------------(version    0.6.2)--------------------#
#       A Python package for random crystal generation      #
#       url: https://github.com/qzhu2017/pyxtal             #
#       @Zhu's group at University of Nevada Las Vegas      #
#############################################################
data_46-SG-14
#Energy: -291.499625 eV/cell

_symmetry_space_group_name_H-M 'P21/c'
_symmetry_Int_Tables_number                   14
_symmetry_cell_setting                monoclinic
_cell_length_a            9.239909
_cell_length_b           16.978342
_cell_length_c            9.404936
_cell_angle_alpha        90.000000
_cell_angle_beta        119.411863
_cell_angle_gamma        90.000000
_cell_volume           1285.265612

loop_
 _symmetry_equiv_pos_site_id
 _symmetry_equiv_pos_as_xyz
1 'x, y, z'
2 '-x, y+1/2, -z+1/2'
3 '-x, -y, -z'
4 'x, -y+1/2, z+1/2'

loop_
 _atom_site_label
 _atom_site_type_symbol
 _atom_site_symmetry_multiplicity
 _atom_site_fract_x
 _atom_site_fract_y
 _atom_site_fract_z
 _atom_site_occupancy
C      C        4    -0.021000    0.234000    0.599000 1
Si     Si       4     0.172000    0.199000    0.712000 1
O      O        4     0.290000    0.265000    0.821000 1
O      O        4     0.187000    0.134000    0.826000 1
Si     Si       4     0.105000    0.071000    0.876000 1
C      C        4     0.168000    0.076000    1.075000 1
O      O        4    -0.085000    0.078000    0.772000 1
O      O        4     0.154000   -0.007000    0.832000 1
Si     Si       4     0.252000   -0.039000    0.754000 1
C      C        4     0.397000   -0.104000    0.875000 1
O      O        4     0.124000   -0.076000    0.590000 1
O      O        4     0.326000    0.032000    0.716000 1
Si     Si       4     0.313000    0.087000    0.585000 1
C      C        4     0.495000    0.101000    0.591000 1
O      O        4     0.182000    0.050000    0.421000 1
O      O        4     0.240000    0.164000    0.607000 1
H      H        4    -0.108000    0.203000    0.626000 1
H      H        4    -0.024000    0.296000    0.625000 1
H      H        4    -0.061000    0.227000    0.469000 1
H      H        4     0.330000    0.242000    0.928000 1
H      H        4     0.061000    0.084000    1.093000 1
H      H        4     0.232000    0.022000    1.134000 1
H      H        4     0.253000    0.125000    1.129000 1
H      H        4    -0.116000    0.027000    0.715000 1
H      H        4     0.393000   -0.111000    0.988000 1
H      H        4     0.374000   -0.161000    0.813000 1
H      H        4     0.519000   -0.082000    0.903000 1
H      H        4     0.137000   -0.044000    0.512000 1
H      H        4     0.486000    0.081000    0.476000 1
H      H        4     0.591000    0.067000    0.692000 1
H      H        4     0.529000    0.163000    0.610000 1
H      H        4     0.092000    0.088000    0.385000 1
#END

#############################################################
#             ______       _    _          _                #
#            (_____ \     \ \  / /        | |               #
#             _____) )   _ \ \/ / |_  ____| |               #
#            |  ____/ | | | )  (|  _)/ _  | |               #
#            | |    | |_| |/ /\ \ |_( (_| | |___            #
#            |_|     \__  /_/  \_\___)__|_|_____)           #
#                   (____/                                  #
#---------------------(version    0.6.2)--------------------#
#       A Python package for random crystal generation      #
#       url: https://github.com/qzhu2017/pyxtal             #
#       @Zhu's group at University of Nevada Las Vegas      #
#############################################################
data_47-SG-14
#Energy: -291.4854775 eV/cell

_symmetry_space_group_name_H-M 'P 1 21/n 1'
_symmetry_Int_Tables_number                   14
_symmetry_cell_setting                monoclinic
_cell_length_a           12.175051
_cell_length_b            7.936935
_cell_length_c           12.475160
_cell_angle_alpha        90.000000
_cell_angle_beta         78.896411
_cell_angle_gamma        90.000000
_cell_volume           1182.940637

loop_
 _symmetry_equiv_pos_site_id
 _symmetry_equiv_pos_as_xyz
1 'x, y, z'
2 '-x-1/2, y+1/2, -z-1/2'
3 '-x, -y, -z'
4 'x-1/2, -y+1/2, z-1/2'

loop_
 _atom_site_label
 _atom_site_type_symbol
 _atom_site_symmetry_multiplicity
 _atom_site_fract_x
 _atom_site_fract_y
 _atom_site_fract_z
 _atom_site_occupancy
C      C        4     0.566000    0.355000    0.647000 1
Si     Si       4     0.484000    0.514000    0.702000 1
O      O        4     0.475000    0.652000    0.616000 1
O      O        4     0.365000    0.457000    0.749000 1
Si     Si       4     0.278000    0.466000    0.855000 1
C      C        4     0.159000    0.549000    0.832000 1
O      O        4     0.255000    0.287000    0.904000 1
O      O        4     0.335000    0.566000    0.932000 1
Si     Si       4     0.354000    0.721000    0.997000 1
C      C        4     0.265000    0.882000    0.997000 1
O      O        4     0.353000    0.660000    1.114000 1
O      O        4     0.472000    0.779000    0.949000 1
Si     Si       4     0.567000    0.743000    0.854000 1
C      C        4     0.596000    0.912000    0.773000 1
O      O        4     0.670000    0.686000    0.901000 1
O      O        4     0.528000    0.592000    0.797000 1
H      H        4     0.521000    0.237000    0.657000 1
H      H        4     0.638000    0.344000    0.688000 1
H      H        4     0.597000    0.379000    0.561000 1
H      H        4     0.395000    0.654000    0.615000 1
H      H        4     0.091000    0.459000    0.857000 1
H      H        4     0.166000    0.577000    0.746000 1
H      H        4     0.138000    0.662000    0.880000 1
H      H        4     0.282000    0.297000    0.973000 1
H      H        4     0.202000    0.857000    0.949000 1
H      H        4     0.225000    0.906000    1.081000 1
H      H        4     0.312000    0.993000    0.964000 1
H      H        4     0.431000    0.678000    1.119000 1
H      H        4     0.585000    0.885000    0.690000 1
H      H        4     0.540000    1.016000    0.806000 1
H      H        4     0.682000    0.951000    0.770000 1
H      H        4     0.675000    0.568000    0.879000 1
#END

#############################################################
#             ______       _    _          _                #
#            (_____ \     \ \  / /        | |               #
#             _____) )   _ \ \/ / |_  ____| |               #
#            |  ____/ | | | )  (|  _)/ _  | |               #
#            | |    | |_| |/ /\ \ |_( (_| | |___            #
#            |_|     \__  /_/  \_\___)__|_|_____)           #
#                   (____/                                  #
#---------------------(version    0.6.2)--------------------#
#       A Python package for random crystal generation      #
#       url: https://github.com/qzhu2017/pyxtal             #
#       @Zhu's group at University of Nevada Las Vegas      #
#############################################################
data_48-SG-14
#Energy: -291.48162 eV/cell

_symmetry_space_group_name_H-M 'P 1 21/n 1'
_symmetry_Int_Tables_number                   14
_symmetry_cell_setting                monoclinic
_cell_length_a            8.296121
_cell_length_b           15.389851
_cell_length_c           10.143226
_cell_angle_alpha        90.000000
_cell_angle_beta         84.953725
_cell_angle_gamma        90.000000
_cell_volume           1290.027566

loop_
 _symmetry_equiv_pos_site_id
 _symmetry_equiv_pos_as_xyz
1 'x, y, z'
2 '-x-1/2, y+1/2, -z-1/2'
3 '-x, -y, -z'
4 'x-1/2, -y+1/2, z-1/2'

loop_
 _atom_site_label
 _atom_site_type_symbol
 _atom_site_symmetry_multiplicity
 _atom_site_fract_x
 _atom_site_fract_y
 _atom_site_fract_z
 _atom_site_occupancy
C      C        4     0.124000    0.721000    0.093000 1
Si     Si       4     0.221000    0.758000    0.220000 1
O      O        4     0.125000    0.737000    0.353000 1
O      O        4     0.388000    0.724000    0.227000 1
Si     Si       4     0.528000    0.678000    0.159000 1
C      C        4     0.593000    0.597000    0.251000 1
O      O        4     0.486000    0.646000    0.023000 1
O      O        4     0.653000    0.748000    0.136000 1
Si     Si       4     0.689000    0.844000    0.146000 1
C      C        4     0.816000    0.860000    0.262000 1
O      O        4     0.774000    0.870000    0.008000 1
O      O        4     0.543000    0.905000    0.171000 1
Si     Si       4     0.363000    0.929000    0.199000 1
C      C        4     0.338000    0.991000    0.335000 1
O      O        4     0.314000    0.980000    0.077000 1
O      O        4     0.245000    0.854000    0.211000 1
H      H        4     0.011000    0.690000    0.131000 1
H      H        4     0.096000    0.776000    0.029000 1
H      H        4     0.197000    0.674000    0.034000 1
H      H        4     0.203000    0.702000    0.399000 1
H      H        4     0.589000    0.536000    0.195000 1
H      H        4     0.516000    0.591000    0.343000 1
H      H        4     0.718000    0.609000    0.273000 1
H      H        4     0.551000    0.684000   -0.039000 1
H      H        4     0.764000    0.906000    0.335000 1
H      H        4     0.837000    0.798000    0.311000 1
H      H        4     0.931000    0.886000    0.216000 1
H      H        4     0.712000    0.921000   -0.015000 1
H      H        4     0.250000    0.961000    0.406000 1
H      H        4     0.295000    1.055000    0.307000 1
H      H        4     0.453000    0.998000    0.378000 1
H      H        4     0.227000    0.943000    0.052000 1
#END

#############################################################
#             ______       _    _          _                #
#            (_____ \     \ \  / /        | |               #
#             _____) )   _ \ \/ / |_  ____| |               #
#            |  ____/ | | | )  (|  _)/ _  | |               #
#            | |    | |_| |/ /\ \ |_( (_| | |___            #
#            |_|     \__  /_/  \_\___)__|_|_____)           #
#                   (____/                                  #
#---------------------(version    0.6.2)--------------------#
#       A Python package for random crystal generation      #
#       url: https://github.com/qzhu2017/pyxtal             #
#       @Zhu's group at University of Nevada Las Vegas      #
#############################################################
data_49-SG-14
#Energy: -291.4704525 eV/cell

_symmetry_space_group_name_H-M 'P 1 21/n 1'
_symmetry_Int_Tables_number                   14
_symmetry_cell_setting                monoclinic
_cell_length_a            5.422442
_cell_length_b           10.191925
_cell_length_c           20.507327
_cell_angle_alpha        90.000000
_cell_angle_beta         87.117831
_cell_angle_gamma        90.000000
_cell_volume           1131.906318

loop_
 _symmetry_equiv_pos_site_id
 _symmetry_equiv_pos_as_xyz
1 'x, y, z'
2 '-x-1/2, y+1/2, -z-1/2'
3 '-x, -y, -z'
4 'x-1/2, -y+1/2, z-1/2'

loop_
 _atom_site_label
 _atom_site_type_symbol
 _atom_site_symmetry_multiplicity
 _atom_site_fract_x
 _atom_site_fract_y
 _atom_site_fract_z
 _atom_site_occupancy
C      C        4     0.447000    0.221000    0.283000 1
Si     Si       4     0.631000    0.261000    0.218000 1
O      O        4     0.832000    0.364000    0.233000 1
O      O        4     0.476000    0.309000    0.163000 1
Si     Si       4     0.422000    0.411000    0.112000 1
C      C        4     0.561000    0.555000    0.123000 1
O      O        4     0.138000    0.427000    0.114000 1
O      O        4     0.513000    0.350000    0.047000 1
Si     Si       4     0.656000    0.232000    0.020000 1
C      C        4     0.927000    0.283000   -0.013000 1
O      O        4     0.499000    0.168000   -0.032000 1
O      O        4     0.672000    0.138000    0.078000 1
Si     Si       4     0.813000    0.065000    0.128000 1
C      C        4     1.115000    0.047000    0.111000 1
O      O        4     0.693000   -0.072000    0.139000 1
O      O        4     0.767000    0.141000    0.191000 1
H      H        4     0.255000    0.244000    0.272000 1
H      H        4     0.462000    0.116000    0.292000 1
H      H        4     0.496000    0.275000    0.325000 1
H      H        4     0.810000    0.381000    0.280000 1
H      H        4     0.423000    0.633000    0.128000 1
H      H        4     0.664000    0.553000    0.167000 1
H      H        4     0.686000    0.576000    0.081000 1
H      H        4     0.083000    0.379000    0.153000 1
H      H        4     0.943000    0.256000   -0.064000 1
H      H        4     1.078000    0.242000    0.012000 1
H      H        4     0.937000    0.390000   -0.009000 1
H      H        4     0.363000    0.229000   -0.031000 1
H      H        4     1.162000   -0.057000    0.112000 1
H      H        4     1.172000    0.084000    0.064000 1
H      H        4     1.217000    0.097000    0.148000 1
H      H        4     0.579000   -0.077000    0.104000 1
#END

